Program Version,EnergyPlus, Version 9.4.0-998c4b761e, YMD=2021.07.19 13:49
! <Version>, Version ID
 Version, 9.4
! <Timesteps per Hour>, #TimeSteps, Minutes per TimeStep {minutes}
 Timesteps per Hour,  6, 10
! <System Convergence Limits>, Minimum System TimeStep {minutes}, Max HVAC Iterations, Minimum Plant Iterations, Maximum Plant Iterations
 System Convergence Limits, 1, 20, 2, 8
! <Simulation Control>, Do Zone Sizing, Do System Sizing, Do Plant Sizing, Do Design Days, Do Weather Simulation, Do HVAC Sizing Simulation
 Simulation Control, Yes, Yes, Yes, No, Yes, Yes
! <Performance Precision Tradeoffs>, Use Coil Direct Simulation, Zone Radiant Exchange Algorithm, Override Mode, Number of Timestep In Hour, Force Euler Method, Minimum Number of Warmup Days, Force Suppress All Begin Environment Resets, Minimum System Timestep, MaxZoneTempDiff, MaxAllowedDelTemp
 Performance Precision Tradeoffs, No, ScriptF, Normal, 6, No, 1, No, 1.0, 0.300, 2.0000E-003
! <Output Reporting Tolerances>, Tolerance for Time Heating Setpoint Not Met, Tolerance for Zone Cooling Setpoint Not Met Time
 Output Reporting Tolerances, 0.200, 0.200, 
! <Site:GroundTemperature:BuildingSurface>,Jan{C},Feb{C},Mar{C},Apr{C},May{C},Jun{C},Jul{C},Aug{C},Sep{C},Oct{C},Nov{C},Dec{C}
 Site:GroundTemperature:BuildingSurface,  18.00,  18.00,  18.00,  18.00,  18.00,  18.00,  18.00,  18.00,  18.00,  18.00,  18.00,  18.00
! <Site:GroundTemperature:FCfactorMethod>,Jan{C},Feb{C},Mar{C},Apr{C},May{C},Jun{C},Jul{C},Aug{C},Sep{C},Oct{C},Nov{C},Dec{C}
 Site:GroundTemperature:FCfactorMethod,   9.70,   6.00,  -2.20,  -3.40,  -4.20,   2.70,   7.50,  13.70,  18.60,  22.00,  20.70,  16.50
! <Site:GroundTemperature:Shallow>,Jan{C},Feb{C},Mar{C},Apr{C},May{C},Jun{C},Jul{C},Aug{C},Sep{C},Oct{C},Nov{C},Dec{C}
 Site:GroundTemperature:Shallow,  13.00,  13.00,  13.00,  13.00,  13.00,  13.00,  13.00,  13.00,  13.00,  13.00,  13.00,  13.00
! <Site:GroundTemperature:Deep>,Jan{C},Feb{C},Mar{C},Apr{C},May{C},Jun{C},Jul{C},Aug{C},Sep{C},Oct{C},Nov{C},Dec{C}
 Site:GroundTemperature:Deep,  16.00,  16.00,  16.00,  16.00,  16.00,  16.00,  16.00,  16.00,  16.00,  16.00,  16.00,  16.00
! <Site:GroundReflectance>,Jan{dimensionless},Feb{dimensionless},Mar{dimensionless},Apr{dimensionless},May{dimensionless},Jun{dimensionless},Jul{dimensionless},Aug{dimensionless},Sep{dimensionless},Oct{dimensionless},Nov{dimensionless},Dec{dimensionless}
 Site:GroundReflectance,  0.20,  0.20,  0.20,  0.20,  0.20,  0.20,  0.20,  0.20,  0.20,  0.20,  0.20,  0.20
! <Site:GroundReflectance:SnowModifier>, Normal, Daylighting {dimensionless}
 Site:GroundReflectance:SnowModifier,   1.000,   1.000
! <Site:GroundReflectance:Snow>,Jan{dimensionless},Feb{dimensionless},Mar{dimensionless},Apr{dimensionless},May{dimensionless},Jun{dimensionless},Jul{dimensionless},Aug{dimensionless},Sep{dimensionless},Oct{dimensionless},Nov{dimensionless},Dec{dimensionless}
 Site:GroundReflectance:Snow,  0.20,  0.20,  0.20,  0.20,  0.20,  0.20,  0.20,  0.20,  0.20,  0.20,  0.20,  0.20
! <Site:GroundReflectance:Snow:Daylighting>,Jan{dimensionless},Feb{dimensionless},Mar{dimensionless},Apr{dimensionless},May{dimensionless},Jun{dimensionless},Jul{dimensionless},Aug{dimensionless},Sep{dimensionless},Oct{dimensionless},Nov{dimensionless},Dec{dimensionless}
 Site:GroundReflectance:Snow:Daylighting,  0.20,  0.20,  0.20,  0.20,  0.20,  0.20,  0.20,  0.20,  0.20,  0.20,  0.20,  0.20
! <Environment:Weather Station>,Wind Sensor Height Above Ground {m},Wind Speed Profile Exponent {},Wind Speed Profile Boundary Layer Thickness {m},Air Temperature Sensor Height Above Ground {m},Wind Speed Modifier Coefficient-Internal,Temperature Modifier Coefficient-Internal
Environment:Weather Station,10.000,0.140,270.000,1.500,1.586,9.750E-003
! <Site:Location>, Location Name, Latitude {N+/S- Deg}, Longitude {E+/W- Deg},  Time Zone Number {GMT+/-}, Elevation {m},  Standard Pressure at Elevation {Pa}, Standard RhoAir at Elevation
Site:Location,Chicago Ohare Intl Ap IL USA TMY3 WMO#=725300,41.98,-87.92,-6.00,201.00,98934,1.1759
! <Site Water Mains Temperature Information>,Calculation Method{},Water Mains Temperature Schedule Name{},Annual Average Outdoor Air Temperature{C},Maximum Difference In Monthly Average Outdoor Air Temperatures{deltaC},Fixed Default Water Mains Temperature{C}
Site Water Mains Temperature Information,Correlation,NA,8.97,26.20,NA
! <Building Information>, Building Name,North Axis {deg},Terrain,  Loads Convergence Tolerance Value,Temperature Convergence Tolerance Value,  Solar Distribution,Maximum Number of Warmup Days,Minimum Number of Warmup Days
 Building Information,-MediumOffice-ASHRAE 169-2013-5A created: 2021-03-07 23:30:32 -0800,0.000,City,4.00000E-002,0.20000,FullInteriorAndExterior,25,6
! <Inside Convection Algorithm>, Algorithm {Simple | TARP | CeilingDiffuser | AdaptiveConvectionAlgorithm}
Inside Convection Algorithm,TARP
! <Outside Convection Algorithm>, Algorithm {SimpleCombined | TARP | MoWitt | DOE-2 | AdaptiveConvectionAlgorithm}
Outside Convection Algorithm,TARP
! <Sky Radiance Distribution>, Value {Anisotropic}
Sky Radiance Distribution,Anisotropic
! <Zone Air Solution Algorithm>, Value {ThirdOrderBackwardDifference | AnalyticalSolution | EulerMethod}
 Zone Air Solution Algorithm, ThirdOrderBackwardDifference
! <Zone Air Carbon Dioxide Balance Simulation>, Simulation {Yes/No}, Carbon Dioxide Concentration
 Zone Air Carbon Dioxide Balance Simulation, No,N/A
! <Zone Air Generic Contaminant Balance Simulation>, Simulation {Yes/No}, Generic Contaminant Concentration
 Zone Air Generic Contaminant Balance Simulation, No,N/A
! <Zone Air Mass Flow Balance Simulation>, Enforce Mass Balance, Adjust Zone Mixing, Adjust Zone Infiltration {AddInfiltration | AdjustInfiltration | None}, Infiltration Zones {MixingSourceZonesOnly | AllZones}
 Zone Air Mass Flow Balance Simulation, No,N/A,N/A,N/A
! <HVACSystemRootFindingAlgorithm>, Value {RegulaFalsi | Bisection | BisectionThenRegulaFalsi | RegulaFalsiThenBisection}
 HVACSystemRootFindingAlgorithm, RegulaFalsi
! <Environment:Site Atmospheric Variation>,Wind Speed Profile Exponent {},Wind Speed Profile Boundary Layer Thickness {m},Air Temperature Gradient Coefficient {K/m}
Environment:Site Atmospheric Variation,0.330,460.000,6.500000E-003
! <Surface Geometry>,Starting Corner,Vertex Input Direction,Coordinate System,Daylight Reference Point Coordinate System,Rectangular (Simple) Surface Coordinate System
 Surface Geometry,UpperLeftCorner,Counterclockwise,RelativeCoordinateSystem,RelativeCoordinateSystem,RelativeToZoneOrigin
! <Surface Heat Transfer Algorithm>, Value {CTF - ConductionTransferFunction | EMPD - MoisturePenetrationDepthConductionTransferFunction | CondFD - ConductionFiniteDifference | HAMT - CombinedHeatAndMoistureFiniteElement} - Description,Inside Surface Max Temperature Limit{C}, Surface Convection Coefficient Lower Limit {W/m2-K}, Surface Convection Coefficient Upper Limit {W/m2-K}
Surface Heat Transfer Algorithm, CTF - ConductionTransferFunction,200,0.10,1000.0
! <Shading Summary>, Number of Fixed Detached Shades, Number of Building Detached Shades, Number of Attached Shades
 Shading Summary,0,0,0
! <Zone Summary>, Number of Zones, Number of Zone Surfaces, Number of SubSurfaces
 Zone Summary,18,164,18
! <Zone Information>,Zone Name,North Axis {deg},Origin X-Coordinate {m},Origin Y-Coordinate {m},Origin Z-Coordinate {m},Centroid X-Coordinate {m},Centroid Y-Coordinate {m},Centroid Z-Coordinate {m},Type,Zone Multiplier,Zone List Multiplier,Minimum X {m},Maximum X {m},Minimum Y {m},Maximum Y {m},Minimum Z {m},Maximum Z {m},Ceiling Height {m},Volume {m3},Zone Inside Convection Algorithm {Simple-Detailed-CeilingDiffuser-TrombeWall},Zone Outside Convection Algorithm {Simple-Detailed-Tarp-MoWitt-DOE-2-BLAST}, Floor Area {m2},Exterior Gross Wall Area {m2},Exterior Net Wall Area {m2},Exterior Window Area {m2}, Number of Surfaces, Number of SubSurfaces, Number of Shading SubSurfaces,  Part of Total Building Area
 Zone Information, CORE_BOTTOM ZN,0.0,0.00,0.00,0.00,24.96,16.64,1.37,1,1,1,4.57,45.34,4.57,28.70,0.00,2.74,2.74,2698.04,TARP,TARP,983.54,0.00,0.00,0.00,6,0,0,Yes
 Zone Information, CORE_MID ZN,0.0,0.00,0.00,0.00,24.96,16.64,5.33,1,1,1,4.57,45.34,4.57,28.70,3.96,6.71,2.74,2698.04,TARP,TARP,983.54,0.00,0.00,0.00,6,0,0,Yes
 Zone Information, CORE_TOP ZN,0.0,0.00,0.00,0.00,24.96,16.64,9.30,1,1,1,4.57,45.34,4.57,28.70,7.92,10.67,2.74,2698.04,TARP,TARP,983.54,0.00,0.00,0.00,6,0,0,Yes
 Zone Information, FIRSTFLOOR_PLENUM ZN,0.0,0.00,0.00,0.00,24.96,16.64,3.35,1,1,1,0.00,49.91,0.00,33.27,2.74,3.96,1.22,2024.76,TARP,TARP,1660.73,202.84,202.84,0.00,14,0,0,No
 Zone Information, MIDFLOOR_PLENUM ZN,0.0,0.00,0.00,0.00,24.96,16.64,7.32,1,1,1,0.00,49.91,0.00,33.27,6.71,7.92,1.22,2024.76,TARP,TARP,1660.73,202.84,202.84,0.00,14,0,0,No
 Zone Information, PERIMETER_BOT_ZN_1 ZN,0.0,0.00,0.00,0.00,24.96,2.16,1.37,1,1,1,0.00,49.91,0.00,4.57,0.00,2.74,2.74,568.77,TARP,TARP,207.34,136.92,67.73,65.28,6,3,0,Yes
 Zone Information, PERIMETER_BOT_ZN_2 ZN,0.0,0.00,0.00,0.00,47.82,16.64,1.37,1,1,1,45.34,49.91,0.00,33.27,0.00,2.74,2.74,360.08,TARP,TARP,131.26,91.28,45.80,43.52,6,2,0,Yes
 Zone Information, PERIMETER_BOT_ZN_3 ZN,0.0,0.00,0.00,0.00,24.96,31.11,1.37,1,1,1,0.00,49.91,28.70,33.27,0.00,2.74,2.74,568.77,TARP,TARP,207.34,136.92,67.73,65.28,6,3,0,Yes
 Zone Information, PERIMETER_BOT_ZN_4 ZN,0.0,0.00,0.00,0.00,2.09,16.64,1.37,1,1,1,0.00,4.57,0.00,33.27,0.00,2.74,2.74,360.05,TARP,TARP,131.25,91.28,45.80,43.52,6,2,0,Yes
 Zone Information, PERIMETER_MID_ZN_1 ZN,0.0,0.00,0.00,0.00,24.96,2.16,5.33,1,1,1,0.00,49.91,0.00,4.57,3.96,6.71,2.74,568.77,TARP,TARP,207.34,136.92,71.63,65.28,6,1,0,Yes
 Zone Information, PERIMETER_MID_ZN_2 ZN,0.0,0.00,0.00,0.00,47.82,16.64,5.33,1,1,1,45.34,49.91,0.00,33.27,3.96,6.71,2.74,360.08,TARP,TARP,131.26,91.28,47.75,43.52,6,1,0,Yes
 Zone Information, PERIMETER_MID_ZN_3 ZN,0.0,0.00,0.00,0.00,24.96,31.11,5.33,1,1,1,0.00,49.91,28.70,33.27,3.96,6.71,2.74,568.77,TARP,TARP,207.34,136.92,71.63,65.28,6,1,0,Yes
 Zone Information, PERIMETER_MID_ZN_4 ZN,0.0,0.00,0.00,0.00,2.09,16.64,5.33,1,1,1,0.00,4.57,0.00,33.27,3.96,6.71,2.74,360.05,TARP,TARP,131.25,91.28,47.75,43.52,6,1,0,Yes
 Zone Information, PERIMETER_TOP_ZN_1 ZN,0.0,0.00,0.00,0.00,24.96,2.16,9.30,1,1,1,0.00,49.91,0.00,4.57,7.92,10.67,2.74,568.77,TARP,TARP,207.34,136.92,71.63,65.28,6,1,0,Yes
 Zone Information, PERIMETER_TOP_ZN_2 ZN,0.0,0.00,0.00,0.00,47.82,16.64,9.30,1,1,1,45.34,49.91,0.00,33.27,7.92,10.67,2.74,360.08,TARP,TARP,131.26,91.28,47.75,43.52,6,1,0,Yes
 Zone Information, PERIMETER_TOP_ZN_3 ZN,0.0,0.00,0.00,0.00,24.96,31.11,9.30,1,1,1,0.00,49.91,28.70,33.27,7.92,10.67,2.74,568.77,TARP,TARP,207.34,136.92,71.63,65.28,6,1,0,Yes
 Zone Information, PERIMETER_TOP_ZN_4 ZN,0.0,0.00,0.00,0.00,2.09,16.64,9.30,1,1,1,0.00,4.57,0.00,33.27,7.92,10.67,2.74,360.05,TARP,TARP,131.25,91.28,47.75,43.52,6,1,0,Yes
 Zone Information, TOPFLOOR_PLENUM ZN,0.0,0.00,0.00,0.00,24.96,16.64,11.28,1,1,1,0.00,49.91,0.00,33.27,10.67,11.89,1.22,2024.76,TARP,TARP,1660.73,202.84,202.84,0.00,10,0,0,No
! <Zone Internal Gains Nominal>,Zone Name, Floor Area {m2},# Occupants,Area per Occupant {m2/person},Occupant per Area {person/m2},Interior Lighting {W/m2},Electric Load {W/m2},Gas Load {W/m2},Other Load {W/m2},Hot Water Eq {W/m2},Steam Equipment {W/m2},Sum Loads per Area {W/m2},Outdoor Controlled Baseboard Heat
 Zone Internal Gains Nominal, CORE_BOTTOM ZN,983.54,52.9,18.581,5.382E-002,9.688,40.938,0.000,0.000,0.000,0.000,50.626,No
 Zone Internal Gains Nominal, CORE_MID ZN,983.54,52.9,18.581,5.382E-002,9.688,8.073,0.000,0.000,0.000,0.000,17.760,No
 Zone Internal Gains Nominal, CORE_TOP ZN,983.54,52.9,18.581,5.382E-002,9.688,8.073,0.000,0.000,0.000,0.000,17.760,No
 Zone Internal Gains Nominal, FIRSTFLOOR_PLENUM ZN,1660.73,0.0,N/A,0.000,0.000,0.000,0.000,0.000,0.000,0.000,0.000,No
 Zone Internal Gains Nominal, MIDFLOOR_PLENUM ZN,1660.73,0.0,N/A,0.000,0.000,0.000,0.000,0.000,0.000,0.000,0.000,No
 Zone Internal Gains Nominal, PERIMETER_BOT_ZN_1 ZN,207.34,11.2,18.581,5.382E-002,9.688,8.073,0.000,0.000,0.000,0.000,17.760,No
 Zone Internal Gains Nominal, PERIMETER_BOT_ZN_2 ZN,131.26,7.1,18.581,5.382E-002,9.688,8.073,0.000,0.000,0.000,0.000,17.760,No
 Zone Internal Gains Nominal, PERIMETER_BOT_ZN_3 ZN,207.34,11.2,18.581,5.382E-002,9.688,8.073,0.000,0.000,0.000,0.000,17.760,No
 Zone Internal Gains Nominal, PERIMETER_BOT_ZN_4 ZN,131.25,7.1,18.581,5.382E-002,9.688,8.073,0.000,0.000,0.000,0.000,17.760,No
 Zone Internal Gains Nominal, PERIMETER_MID_ZN_1 ZN,207.34,11.2,18.581,5.382E-002,9.688,8.073,0.000,0.000,0.000,0.000,17.760,No
 Zone Internal Gains Nominal, PERIMETER_MID_ZN_2 ZN,131.26,7.1,18.581,5.382E-002,9.688,8.073,0.000,0.000,0.000,0.000,17.760,No
 Zone Internal Gains Nominal, PERIMETER_MID_ZN_3 ZN,207.34,11.2,18.581,5.382E-002,9.688,8.073,0.000,0.000,0.000,0.000,17.760,No
 Zone Internal Gains Nominal, PERIMETER_MID_ZN_4 ZN,131.25,7.1,18.581,5.382E-002,9.688,8.073,0.000,0.000,0.000,0.000,17.760,No
 Zone Internal Gains Nominal, PERIMETER_TOP_ZN_1 ZN,207.34,11.2,18.581,5.382E-002,9.688,8.073,0.000,0.000,0.000,0.000,17.760,No
 Zone Internal Gains Nominal, PERIMETER_TOP_ZN_2 ZN,131.26,7.1,18.581,5.382E-002,9.688,8.073,0.000,0.000,0.000,0.000,17.760,No
 Zone Internal Gains Nominal, PERIMETER_TOP_ZN_3 ZN,207.34,11.2,18.581,5.382E-002,9.688,8.073,0.000,0.000,0.000,0.000,17.760,No
 Zone Internal Gains Nominal, PERIMETER_TOP_ZN_4 ZN,131.25,7.1,18.581,5.382E-002,9.688,8.073,0.000,0.000,0.000,0.000,17.760,No
 Zone Internal Gains Nominal, TOPFLOOR_PLENUM ZN,1660.73,0.0,N/A,0.000,0.000,0.000,0.000,0.000,0.000,0.000,0.000,No
! <People Internal Gains Nominal>,Name,Schedule Name,Zone Name,Zone Floor Area {m2},# Zone Occupants,Number of People {},People/Floor Area {person/m2},Floor Area per person {m2/person},Fraction Radiant,Fraction Convected,Sensible Fraction Calculation,Activity level,ASHRAE 55 Warnings,Carbon Dioxide Generation Rate,Nominal Minimum Number of People,Nominal Maximum Number of People
 People Internal Gains Nominal, CORE_BOTTOM ZN OFFICE WHOLEBUILDING - MD OFFICE PEOPLE,OFFICEMEDIUM BLDG_OCC_SCH,CORE_BOTTOM ZN,983.54,52.9,52.9,5.382E-002,18.581,0.300,0.700,AutoCalculate,OFFICEMEDIUM ACTIVITY_SCH,No,3.8200E-008,0,53
 People Internal Gains Nominal, CORE_MID ZN OFFICE WHOLEBUILDING - MD OFFICE PEOPLE,OFFICEMEDIUM BLDG_OCC_SCH,CORE_MID ZN,983.54,52.9,52.9,5.382E-002,18.581,0.300,0.700,AutoCalculate,OFFICEMEDIUM ACTIVITY_SCH,No,3.8200E-008,0,53
 People Internal Gains Nominal, CORE_TOP ZN OFFICE WHOLEBUILDING - MD OFFICE PEOPLE,OFFICEMEDIUM BLDG_OCC_SCH,CORE_TOP ZN,983.54,52.9,52.9,5.382E-002,18.581,0.300,0.700,AutoCalculate,OFFICEMEDIUM ACTIVITY_SCH,No,3.8200E-008,0,53
 People Internal Gains Nominal, PERIMETER_BOT_ZN_1 ZN OFFICE WHOLEBUILDING - MD OFFICE PEOPLE,OFFICEMEDIUM BLDG_OCC_SCH,PERIMETER_BOT_ZN_1 ZN,207.34,11.2,11.2,5.382E-002,18.581,0.300,0.700,AutoCalculate,OFFICEMEDIUM ACTIVITY_SCH,No,3.8200E-008,0,11
 People Internal Gains Nominal, PERIMETER_BOT_ZN_2 ZN OFFICE WHOLEBUILDING - MD OFFICE PEOPLE,OFFICEMEDIUM BLDG_OCC_SCH,PERIMETER_BOT_ZN_2 ZN,131.26,7.1,7.1,5.382E-002,18.581,0.300,0.700,AutoCalculate,OFFICEMEDIUM ACTIVITY_SCH,No,3.8200E-008,0,7
 People Internal Gains Nominal, PERIMETER_BOT_ZN_3 ZN OFFICE WHOLEBUILDING - MD OFFICE PEOPLE,OFFICEMEDIUM BLDG_OCC_SCH,PERIMETER_BOT_ZN_3 ZN,207.34,11.2,11.2,5.382E-002,18.581,0.300,0.700,AutoCalculate,OFFICEMEDIUM ACTIVITY_SCH,No,3.8200E-008,0,11
 People Internal Gains Nominal, PERIMETER_BOT_ZN_4 ZN OFFICE WHOLEBUILDING - MD OFFICE PEOPLE,OFFICEMEDIUM BLDG_OCC_SCH,PERIMETER_BOT_ZN_4 ZN,131.25,7.1,7.1,5.382E-002,18.581,0.300,0.700,AutoCalculate,OFFICEMEDIUM ACTIVITY_SCH,No,3.8200E-008,0,7
 People Internal Gains Nominal, PERIMETER_MID_ZN_1 ZN OFFICE WHOLEBUILDING - MD OFFICE PEOPLE,OFFICEMEDIUM BLDG_OCC_SCH,PERIMETER_MID_ZN_1 ZN,207.34,11.2,11.2,5.382E-002,18.581,0.300,0.700,AutoCalculate,OFFICEMEDIUM ACTIVITY_SCH,No,3.8200E-008,0,11
 People Internal Gains Nominal, PERIMETER_MID_ZN_2 ZN OFFICE WHOLEBUILDING - MD OFFICE PEOPLE,OFFICEMEDIUM BLDG_OCC_SCH,PERIMETER_MID_ZN_2 ZN,131.26,7.1,7.1,5.382E-002,18.581,0.300,0.700,AutoCalculate,OFFICEMEDIUM ACTIVITY_SCH,No,3.8200E-008,0,7
 People Internal Gains Nominal, PERIMETER_MID_ZN_3 ZN OFFICE WHOLEBUILDING - MD OFFICE PEOPLE,OFFICEMEDIUM BLDG_OCC_SCH,PERIMETER_MID_ZN_3 ZN,207.34,11.2,11.2,5.382E-002,18.581,0.300,0.700,AutoCalculate,OFFICEMEDIUM ACTIVITY_SCH,No,3.8200E-008,0,11
 People Internal Gains Nominal, PERIMETER_MID_ZN_4 ZN OFFICE WHOLEBUILDING - MD OFFICE PEOPLE,OFFICEMEDIUM BLDG_OCC_SCH,PERIMETER_MID_ZN_4 ZN,131.25,7.1,7.1,5.382E-002,18.581,0.300,0.700,AutoCalculate,OFFICEMEDIUM ACTIVITY_SCH,No,3.8200E-008,0,7
 People Internal Gains Nominal, PERIMETER_TOP_ZN_1 ZN OFFICE WHOLEBUILDING - MD OFFICE PEOPLE,OFFICEMEDIUM BLDG_OCC_SCH,PERIMETER_TOP_ZN_1 ZN,207.34,11.2,11.2,5.382E-002,18.581,0.300,0.700,AutoCalculate,OFFICEMEDIUM ACTIVITY_SCH,No,3.8200E-008,0,11
 People Internal Gains Nominal, PERIMETER_TOP_ZN_2 ZN OFFICE WHOLEBUILDING - MD OFFICE PEOPLE,OFFICEMEDIUM BLDG_OCC_SCH,PERIMETER_TOP_ZN_2 ZN,131.26,7.1,7.1,5.382E-002,18.581,0.300,0.700,AutoCalculate,OFFICEMEDIUM ACTIVITY_SCH,No,3.8200E-008,0,7
 People Internal Gains Nominal, PERIMETER_TOP_ZN_3 ZN OFFICE WHOLEBUILDING - MD OFFICE PEOPLE,OFFICEMEDIUM BLDG_OCC_SCH,PERIMETER_TOP_ZN_3 ZN,207.34,11.2,11.2,5.382E-002,18.581,0.300,0.700,AutoCalculate,OFFICEMEDIUM ACTIVITY_SCH,No,3.8200E-008,0,11
 People Internal Gains Nominal, PERIMETER_TOP_ZN_4 ZN OFFICE WHOLEBUILDING - MD OFFICE PEOPLE,OFFICEMEDIUM BLDG_OCC_SCH,PERIMETER_TOP_ZN_4 ZN,131.25,7.1,7.1,5.382E-002,18.581,0.300,0.700,AutoCalculate,OFFICEMEDIUM ACTIVITY_SCH,No,3.8200E-008,0,7
! <Lights Internal Gains Nominal>,Name,Schedule Name,Zone Name,Zone Floor Area {m2},# Zone Occupants,Lighting Level {W},Lights/Floor Area {W/m2},Lights per person {W/person},Fraction Return Air,Fraction Radiant,Fraction Short Wave,Fraction Convected,Fraction Replaceable,End-Use Category,Nominal Minimum Lighting Level {W},Nominal Maximum Lighting Level {W}
 Lights Internal Gains Nominal, CORE_BOTTOM ZN OFFICE WHOLEBUILDING - MD OFFICE LIGHTS,OFFICEMEDIUM BLDG_LIGHT_SCH_2010,CORE_BOTTOM ZN,983.54,52.9,9528.030,9.688,180.000,0.000,0.700,0.200,0.100,1.000,General,0.000,9528.030
 Lights Internal Gains Nominal, CORE_MID ZN OFFICE WHOLEBUILDING - MD OFFICE LIGHTS,OFFICEMEDIUM BLDG_LIGHT_SCH_2010,CORE_MID ZN,983.54,52.9,9528.030,9.688,180.000,0.000,0.700,0.200,0.100,1.000,General,0.000,9528.030
 Lights Internal Gains Nominal, CORE_TOP ZN OFFICE WHOLEBUILDING - MD OFFICE LIGHTS,OFFICEMEDIUM BLDG_LIGHT_SCH_2010,CORE_TOP ZN,983.54,52.9,9528.030,9.688,180.000,0.000,0.700,0.200,0.100,1.000,General,0.000,9528.030
 Lights Internal Gains Nominal, PERIMETER_BOT_ZN_1 ZN OFFICE WHOLEBUILDING - MD OFFICE LIGHTS,OFFICEMEDIUM BLDG_LIGHT_SCH_2010,PERIMETER_BOT_ZN_1 ZN,207.34,11.2,2008.592,9.688,180.000,0.000,0.700,0.200,0.100,1.000,General,0.000,2008.592
 Lights Internal Gains Nominal, PERIMETER_BOT_ZN_2 ZN OFFICE WHOLEBUILDING - MD OFFICE LIGHTS,OFFICEMEDIUM BLDG_LIGHT_SCH_2010,PERIMETER_BOT_ZN_2 ZN,131.26,7.1,1271.605,9.688,180.000,0.000,0.700,0.200,0.100,1.000,General,0.000,1271.605
 Lights Internal Gains Nominal, PERIMETER_BOT_ZN_3 ZN OFFICE WHOLEBUILDING - MD OFFICE LIGHTS,OFFICEMEDIUM BLDG_LIGHT_SCH_2010,PERIMETER_BOT_ZN_3 ZN,207.34,11.2,2008.592,9.688,180.000,0.000,0.700,0.200,0.100,1.000,General,0.000,2008.592
 Lights Internal Gains Nominal, PERIMETER_BOT_ZN_4 ZN OFFICE WHOLEBUILDING - MD OFFICE LIGHTS,OFFICEMEDIUM BLDG_LIGHT_SCH_2010,PERIMETER_BOT_ZN_4 ZN,131.25,7.1,1271.522,9.688,180.000,0.000,0.700,0.200,0.100,1.000,General,0.000,1271.522
 Lights Internal Gains Nominal, PERIMETER_MID_ZN_1 ZN OFFICE WHOLEBUILDING - MD OFFICE LIGHTS,OFFICEMEDIUM BLDG_LIGHT_SCH_2010,PERIMETER_MID_ZN_1 ZN,207.34,11.2,2008.592,9.688,180.000,0.000,0.700,0.200,0.100,1.000,General,0.000,2008.592
 Lights Internal Gains Nominal, PERIMETER_MID_ZN_2 ZN OFFICE WHOLEBUILDING - MD OFFICE LIGHTS,OFFICEMEDIUM BLDG_LIGHT_SCH_2010,PERIMETER_MID_ZN_2 ZN,131.26,7.1,1271.605,9.688,180.000,0.000,0.700,0.200,0.100,1.000,General,0.000,1271.605
 Lights Internal Gains Nominal, PERIMETER_MID_ZN_3 ZN OFFICE WHOLEBUILDING - MD OFFICE LIGHTS,OFFICEMEDIUM BLDG_LIGHT_SCH_2010,PERIMETER_MID_ZN_3 ZN,207.34,11.2,2008.592,9.688,180.000,0.000,0.700,0.200,0.100,1.000,General,0.000,2008.592
 Lights Internal Gains Nominal, PERIMETER_MID_ZN_4 ZN OFFICE WHOLEBUILDING - MD OFFICE LIGHTS,OFFICEMEDIUM BLDG_LIGHT_SCH_2010,PERIMETER_MID_ZN_4 ZN,131.25,7.1,1271.522,9.688,180.000,0.000,0.700,0.200,0.100,1.000,General,0.000,1271.522
 Lights Internal Gains Nominal, PERIMETER_TOP_ZN_1 ZN OFFICE WHOLEBUILDING - MD OFFICE LIGHTS,OFFICEMEDIUM BLDG_LIGHT_SCH_2010,PERIMETER_TOP_ZN_1 ZN,207.34,11.2,2008.592,9.688,180.000,0.000,0.700,0.200,0.100,1.000,General,0.000,2008.592
 Lights Internal Gains Nominal, PERIMETER_TOP_ZN_2 ZN OFFICE WHOLEBUILDING - MD OFFICE LIGHTS,OFFICEMEDIUM BLDG_LIGHT_SCH_2010,PERIMETER_TOP_ZN_2 ZN,131.26,7.1,1271.605,9.688,180.000,0.000,0.700,0.200,0.100,1.000,General,0.000,1271.605
 Lights Internal Gains Nominal, PERIMETER_TOP_ZN_3 ZN OFFICE WHOLEBUILDING - MD OFFICE LIGHTS,OFFICEMEDIUM BLDG_LIGHT_SCH_2010,PERIMETER_TOP_ZN_3 ZN,207.34,11.2,2008.592,9.688,180.000,0.000,0.700,0.200,0.100,1.000,General,0.000,2008.592
 Lights Internal Gains Nominal, PERIMETER_TOP_ZN_4 ZN OFFICE WHOLEBUILDING - MD OFFICE LIGHTS,OFFICEMEDIUM BLDG_LIGHT_SCH_2010,PERIMETER_TOP_ZN_4 ZN,131.25,7.1,1271.522,9.688,180.000,0.000,0.700,0.200,0.100,1.000,General,0.000,1271.522
! <ElectricEquipment Internal Gains Nominal>,Name,Schedule Name,Zone Name,Zone Floor Area {m2},# Zone Occupants,Equipment Level {W},Equipment/Floor Area {W/m2},Equipment per person {W/person},Fraction Latent,Fraction Radiant,Fraction Lost,Fraction Convected,End-Use SubCategory,Nominal Minimum Equipment Level {W},Nominal Maximum Equipment Level {W}
 ElectricEquipment Internal Gains Nominal, 2 ELEVATOR FANS,OFFICEMEDIUM ELEV_LIGHT_FAN_SCH_ADD_DF,CORE_BOTTOM ZN,983.54,52.9,149.450,0.152,2.823,0.000,0.500,0.000,0.500,Elevators,0.000,103.121
 ElectricEquipment Internal Gains Nominal, 2 ELEVATOR LIFT MOTORS,OFFICEMEDIUM BLDG_ELEVATORS,CORE_BOTTOM ZN,983.54,52.9,32110.000,32.647,606.610,0.000,0.500,0.000,0.500,Elevators,0.000,22155.900
 ElectricEquipment Internal Gains Nominal, 2 ELEVATOR LIGHTS,OFFICEMEDIUM ELEV_LIGHT_FAN_SCH_ADD_DF,CORE_BOTTOM ZN,983.54,52.9,64.697,6.578E-002,1.222,0.000,0.500,0.000,0.500,Elevators,0.000,44.641
 ElectricEquipment Internal Gains Nominal, CORE_BOTTOM ZN OFFICE WHOLEBUILDING - MD OFFICE ELEC EQUIP,OFFICEMEDIUM BLDG_EQUIP_SCH_2010,CORE_BOTTOM ZN,983.54,52.9,7940.025,8.073,150.000,0.000,0.500,0.000,0.500,General,0.000,7940.025
 ElectricEquipment Internal Gains Nominal, CORE_MID ZN OFFICE WHOLEBUILDING - MD OFFICE ELEC EQUIP,OFFICEMEDIUM BLDG_EQUIP_SCH_2010,CORE_MID ZN,983.54,52.9,7940.025,8.073,150.000,0.000,0.500,0.000,0.500,General,0.000,7940.025
 ElectricEquipment Internal Gains Nominal, CORE_TOP ZN OFFICE WHOLEBUILDING - MD OFFICE ELEC EQUIP,OFFICEMEDIUM BLDG_EQUIP_SCH_2010,CORE_TOP ZN,983.54,52.9,7940.025,8.073,150.000,0.000,0.500,0.000,0.500,General,0.000,7940.025
 ElectricEquipment Internal Gains Nominal, PERIMETER_BOT_ZN_1 ZN OFFICE WHOLEBUILDING - MD OFFICE ELEC EQUIP,OFFICEMEDIUM BLDG_EQUIP_SCH_2010,PERIMETER_BOT_ZN_1 ZN,207.34,11.2,1673.827,8.073,150.000,0.000,0.500,0.000,0.500,General,0.000,1673.827
 ElectricEquipment Internal Gains Nominal, PERIMETER_BOT_ZN_2 ZN OFFICE WHOLEBUILDING - MD OFFICE ELEC EQUIP,OFFICEMEDIUM BLDG_EQUIP_SCH_2010,PERIMETER_BOT_ZN_2 ZN,131.26,7.1,1059.671,8.073,150.000,0.000,0.500,0.000,0.500,General,0.000,1059.671
 ElectricEquipment Internal Gains Nominal, PERIMETER_BOT_ZN_3 ZN OFFICE WHOLEBUILDING - MD OFFICE ELEC EQUIP,OFFICEMEDIUM BLDG_EQUIP_SCH_2010,PERIMETER_BOT_ZN_3 ZN,207.34,11.2,1673.827,8.073,150.000,0.000,0.500,0.000,0.500,General,0.000,1673.827
 ElectricEquipment Internal Gains Nominal, PERIMETER_BOT_ZN_4 ZN OFFICE WHOLEBUILDING - MD OFFICE ELEC EQUIP,OFFICEMEDIUM BLDG_EQUIP_SCH_2010,PERIMETER_BOT_ZN_4 ZN,131.25,7.1,1059.601,8.073,150.000,0.000,0.500,0.000,0.500,General,0.000,1059.601
 ElectricEquipment Internal Gains Nominal, PERIMETER_MID_ZN_1 ZN OFFICE WHOLEBUILDING - MD OFFICE ELEC EQUIP,OFFICEMEDIUM BLDG_EQUIP_SCH_2010,PERIMETER_MID_ZN_1 ZN,207.34,11.2,1673.827,8.073,150.000,0.000,0.500,0.000,0.500,General,0.000,1673.827
 ElectricEquipment Internal Gains Nominal, PERIMETER_MID_ZN_2 ZN OFFICE WHOLEBUILDING - MD OFFICE ELEC EQUIP,OFFICEMEDIUM BLDG_EQUIP_SCH_2010,PERIMETER_MID_ZN_2 ZN,131.26,7.1,1059.671,8.073,150.000,0.000,0.500,0.000,0.500,General,0.000,1059.671
 ElectricEquipment Internal Gains Nominal, PERIMETER_MID_ZN_3 ZN OFFICE WHOLEBUILDING - MD OFFICE ELEC EQUIP,OFFICEMEDIUM BLDG_EQUIP_SCH_2010,PERIMETER_MID_ZN_3 ZN,207.34,11.2,1673.827,8.073,150.000,0.000,0.500,0.000,0.500,General,0.000,1673.827
 ElectricEquipment Internal Gains Nominal, PERIMETER_MID_ZN_4 ZN OFFICE WHOLEBUILDING - MD OFFICE ELEC EQUIP,OFFICEMEDIUM BLDG_EQUIP_SCH_2010,PERIMETER_MID_ZN_4 ZN,131.25,7.1,1059.601,8.073,150.000,0.000,0.500,0.000,0.500,General,0.000,1059.601
 ElectricEquipment Internal Gains Nominal, PERIMETER_TOP_ZN_1 ZN OFFICE WHOLEBUILDING - MD OFFICE ELEC EQUIP,OFFICEMEDIUM BLDG_EQUIP_SCH_2010,PERIMETER_TOP_ZN_1 ZN,207.34,11.2,1673.827,8.073,150.000,0.000,0.500,0.000,0.500,General,0.000,1673.827
 ElectricEquipment Internal Gains Nominal, PERIMETER_TOP_ZN_2 ZN OFFICE WHOLEBUILDING - MD OFFICE ELEC EQUIP,OFFICEMEDIUM BLDG_EQUIP_SCH_2010,PERIMETER_TOP_ZN_2 ZN,131.26,7.1,1059.671,8.073,150.000,0.000,0.500,0.000,0.500,General,0.000,1059.671
 ElectricEquipment Internal Gains Nominal, PERIMETER_TOP_ZN_3 ZN OFFICE WHOLEBUILDING - MD OFFICE ELEC EQUIP,OFFICEMEDIUM BLDG_EQUIP_SCH_2010,PERIMETER_TOP_ZN_3 ZN,207.34,11.2,1673.827,8.073,150.000,0.000,0.500,0.000,0.500,General,0.000,1673.827
 ElectricEquipment Internal Gains Nominal, PERIMETER_TOP_ZN_4 ZN OFFICE WHOLEBUILDING - MD OFFICE ELEC EQUIP,OFFICEMEDIUM BLDG_EQUIP_SCH_2010,PERIMETER_TOP_ZN_4 ZN,131.25,7.1,1059.601,8.073,150.000,0.000,0.500,0.000,0.500,General,0.000,1059.601
! <Shadowing/Sun Position Calculations Annual Simulations>, Shading Calculation Method, Shading Calculation Update Frequency Method, Shading Calculation Update Frequency {days}, Maximum Figures in Shadow Overlap Calculations {}, Polygon Clipping Algorithm, Pixel Counting Resolution, Sky Diffuse Modeling Algorithm, Output External Shading Calculation Results, Disable Self-Shading Within Shading Zone Groups, Disable Self-Shading From Shading Zone Groups to Other Zones
Shadowing/Sun Position Calculations Annual Simulations,PolygonClipping,Periodic,7,15000,SutherlandHodgman,512,SimpleSkyDiffuseModeling,No,No,No
! <Zone/Window Adjacency Daylighting Counts>, Zone Name, Number of Exterior Windows, Number of Exterior Windows in Adjacent Zones
Zone/Window Adjacency Daylighting Counts, PERIMETER_BOT_ZN_1 ZN,1,0
Zone/Window Adjacency Daylighting Counts, PERIMETER_BOT_ZN_2 ZN,1,0
Zone/Window Adjacency Daylighting Counts, PERIMETER_BOT_ZN_3 ZN,1,0
Zone/Window Adjacency Daylighting Counts, PERIMETER_BOT_ZN_4 ZN,1,0
Zone/Window Adjacency Daylighting Counts, PERIMETER_MID_ZN_1 ZN,1,0
Zone/Window Adjacency Daylighting Counts, PERIMETER_MID_ZN_2 ZN,1,0
Zone/Window Adjacency Daylighting Counts, PERIMETER_MID_ZN_3 ZN,1,0
Zone/Window Adjacency Daylighting Counts, PERIMETER_MID_ZN_4 ZN,1,0
Zone/Window Adjacency Daylighting Counts, PERIMETER_TOP_ZN_1 ZN,1,0
Zone/Window Adjacency Daylighting Counts, PERIMETER_TOP_ZN_2 ZN,1,0
Zone/Window Adjacency Daylighting Counts, PERIMETER_TOP_ZN_3 ZN,1,0
Zone/Window Adjacency Daylighting Counts, PERIMETER_TOP_ZN_4 ZN,1,0
! <Zone/Window Adjacency Daylighting Matrix>, Zone Name, Number of Adjacent Zones with Windows,Adjacent Zone Names - 1st 100 (max)
Zone/Window Adjacency Daylighting Matrix, PERIMETER_BOT_ZN_1 ZN,0
Zone/Window Adjacency Daylighting Matrix, PERIMETER_BOT_ZN_2 ZN,0
Zone/Window Adjacency Daylighting Matrix, PERIMETER_BOT_ZN_3 ZN,0
Zone/Window Adjacency Daylighting Matrix, PERIMETER_BOT_ZN_4 ZN,0
Zone/Window Adjacency Daylighting Matrix, PERIMETER_MID_ZN_1 ZN,0
Zone/Window Adjacency Daylighting Matrix, PERIMETER_MID_ZN_2 ZN,0
Zone/Window Adjacency Daylighting Matrix, PERIMETER_MID_ZN_3 ZN,0
Zone/Window Adjacency Daylighting Matrix, PERIMETER_MID_ZN_4 ZN,0
Zone/Window Adjacency Daylighting Matrix, PERIMETER_TOP_ZN_1 ZN,0
Zone/Window Adjacency Daylighting Matrix, PERIMETER_TOP_ZN_2 ZN,0
Zone/Window Adjacency Daylighting Matrix, PERIMETER_TOP_ZN_3 ZN,0
Zone/Window Adjacency Daylighting Matrix, PERIMETER_TOP_ZN_4 ZN,0
! <Water Heater Information>,Type,Name,Volume {m3},Maximum Capacity {W},Standard Rated Recovery Efficiency, Standard Rated Energy Factor
! <ZoneInfiltration Airflow Stats Nominal>,Name,Schedule Name,Zone Name, Zone Floor Area {m2}, # Zone Occupants,Design Volume Flow Rate {m3/s},Volume Flow Rate/Floor Area {m3/s-m2},Volume Flow Rate/Exterior Surface Area {m3/s-m2},ACH - Air Changes per Hour,Equation A - Constant Term Coefficient {},Equation B - Temperature Term Coefficient {1/C},Equation C - Velocity Term Coefficient {s/m}, Equation D - Velocity Squared Term Coefficient {s2/m2}
 ZoneInfiltration Airflow Stats Nominal, FIRSTFLOOR_PLENUM INFILTRATION,OFFICEMEDIUM INFIL_SCH_PNNL,FIRSTFLOOR_PLENUM ZN,1660.73,0.0,0.116,6.957E-005,5.696E-004,0.205,0.000,0.000,0.224,0.000
 ZoneInfiltration Airflow Stats Nominal, MIDFLOOR_PLENUM INFILTRATION,OFFICEMEDIUM INFIL_SCH_PNNL,MIDFLOOR_PLENUM ZN,1660.73,0.0,0.116,6.957E-005,5.696E-004,0.205,0.000,0.000,0.224,0.000
 ZoneInfiltration Airflow Stats Nominal, ENTRY DOOR INFILTRATION,OFFICEMEDIUM INFIL_DOOR_OPENING_SCH,PERIMETER_BOT_ZN_1 ZN,207.34,11.2,0.679,3.273E-003,4.819E-003,4.296,1.000,0.000,0.000,0.000
 ZoneInfiltration Airflow Stats Nominal, PERIMETER_BOT_ZN_1 INFILTRATION,OFFICEMEDIUM INFIL_SCH_PNNL,PERIMETER_BOT_ZN_1 ZN,207.34,11.2,8.021E-002,3.868E-004,5.696E-004,0.508,0.000,0.000,0.224,0.000
 ZoneInfiltration Airflow Stats Nominal, PERIMETER_BOT_ZN_2 INFILTRATION,OFFICEMEDIUM INFIL_SCH_PNNL,PERIMETER_BOT_ZN_2 ZN,131.26,7.1,5.310E-002,4.045E-004,5.696E-004,0.531,0.000,0.000,0.224,0.000
 ZoneInfiltration Airflow Stats Nominal, PERIMETER_BOT_ZN_3 INFILTRATION,OFFICEMEDIUM INFIL_SCH_PNNL,PERIMETER_BOT_ZN_3 ZN,207.34,11.2,8.021E-002,3.868E-004,5.696E-004,0.508,0.000,0.000,0.224,0.000
 ZoneInfiltration Airflow Stats Nominal, PERIMETER_BOT_ZN_4 INFILTRATION,OFFICEMEDIUM INFIL_SCH_PNNL,PERIMETER_BOT_ZN_4 ZN,131.25,7.1,5.310E-002,4.046E-004,5.696E-004,0.531,0.000,0.000,0.224,0.000
 ZoneInfiltration Airflow Stats Nominal, PERIMETER_MID_ZN_1 INFILTRATION,OFFICEMEDIUM INFIL_SCH_PNNL,PERIMETER_MID_ZN_1 ZN,207.34,11.2,7.798E-002,3.761E-004,5.696E-004,0.494,0.000,0.000,0.224,0.000
 ZoneInfiltration Airflow Stats Nominal, PERIMETER_MID_ZN_2 INFILTRATION,OFFICEMEDIUM INFIL_SCH_PNNL,PERIMETER_MID_ZN_2 ZN,131.26,7.1,5.199E-002,3.961E-004,5.696E-004,0.520,0.000,0.000,0.224,0.000
 ZoneInfiltration Airflow Stats Nominal, PERIMETER_MID_ZN_3 INFILTRATION,OFFICEMEDIUM INFIL_SCH_PNNL,PERIMETER_MID_ZN_3 ZN,207.34,11.2,7.798E-002,3.761E-004,5.696E-004,0.494,0.000,0.000,0.224,0.000
 ZoneInfiltration Airflow Stats Nominal, PERIMETER_MID_ZN_4 INFILTRATION,OFFICEMEDIUM INFIL_SCH_PNNL,PERIMETER_MID_ZN_4 ZN,131.25,7.1,5.199E-002,3.961E-004,5.696E-004,0.520,0.000,0.000,0.224,0.000
 ZoneInfiltration Airflow Stats Nominal, PERIMETER_TOP_ZN_1 INFILTRATION,OFFICEMEDIUM INFIL_SCH_PNNL,PERIMETER_TOP_ZN_1 ZN,207.34,11.2,7.798E-002,3.761E-004,5.696E-004,0.494,0.000,0.000,0.224,0.000
 ZoneInfiltration Airflow Stats Nominal, PERIMETER_TOP_ZN_2 INFILTRATION,OFFICEMEDIUM INFIL_SCH_PNNL,PERIMETER_TOP_ZN_2 ZN,131.26,7.1,5.199E-002,3.961E-004,5.696E-004,0.520,0.000,0.000,0.224,0.000
 ZoneInfiltration Airflow Stats Nominal, PERIMETER_TOP_ZN_3 INFILTRATION,OFFICEMEDIUM INFIL_SCH_PNNL,PERIMETER_TOP_ZN_3 ZN,207.34,11.2,7.798E-002,3.761E-004,5.696E-004,0.494,0.000,0.000,0.224,0.000
 ZoneInfiltration Airflow Stats Nominal, PERIMETER_TOP_ZN_4 INFILTRATION,OFFICEMEDIUM INFIL_SCH_PNNL,PERIMETER_TOP_ZN_4 ZN,131.25,7.1,5.199E-002,3.961E-004,5.696E-004,0.520,0.000,0.000,0.224,0.000
 ZoneInfiltration Airflow Stats Nominal, TOPFLOOR_PLENUM INFILTRATION,OFFICEMEDIUM INFIL_SCH_PNNL,TOPFLOOR_PLENUM ZN,1660.73,0.0,0.116,6.957E-005,6.199E-005,0.205,0.000,0.000,0.224,0.000
! <AirFlow Model>, Simple
 AirFlow Model, Simple
! <RoomAir Model>, Zone Name, Mixing/Mundt/UCSDDV/UCSDCV/UCSDUFI/UCSDUFE/User Defined
RoomAir Model,CORE_BOTTOM ZN,Mixing/Well-Stirred
RoomAir Model,CORE_MID ZN,Mixing/Well-Stirred
RoomAir Model,CORE_TOP ZN,Mixing/Well-Stirred
RoomAir Model,FIRSTFLOOR_PLENUM ZN,Mixing/Well-Stirred
RoomAir Model,MIDFLOOR_PLENUM ZN,Mixing/Well-Stirred
RoomAir Model,PERIMETER_BOT_ZN_1 ZN,Mixing/Well-Stirred
RoomAir Model,PERIMETER_BOT_ZN_2 ZN,Mixing/Well-Stirred
RoomAir Model,PERIMETER_BOT_ZN_3 ZN,Mixing/Well-Stirred
RoomAir Model,PERIMETER_BOT_ZN_4 ZN,Mixing/Well-Stirred
RoomAir Model,PERIMETER_MID_ZN_1 ZN,Mixing/Well-Stirred
RoomAir Model,PERIMETER_MID_ZN_2 ZN,Mixing/Well-Stirred
RoomAir Model,PERIMETER_MID_ZN_3 ZN,Mixing/Well-Stirred
RoomAir Model,PERIMETER_MID_ZN_4 ZN,Mixing/Well-Stirred
RoomAir Model,PERIMETER_TOP_ZN_1 ZN,Mixing/Well-Stirred
RoomAir Model,PERIMETER_TOP_ZN_2 ZN,Mixing/Well-Stirred
RoomAir Model,PERIMETER_TOP_ZN_3 ZN,Mixing/Well-Stirred
RoomAir Model,PERIMETER_TOP_ZN_4 ZN,Mixing/Well-Stirred
RoomAir Model,TOPFLOOR_PLENUM ZN,Mixing/Well-Stirred
! <AirflowNetwork Model:Control>, No Multizone or Distribution/Multizone with Distribution/Multizone without Distribution/Multizone with Distribution only during Fan Operation
AirflowNetwork Model:Control,NoMultizoneOrDistribution
! <Zone Volume Capacitance Multiplier>, Sensible Heat Capacity Multiplier, Moisture Capacity Multiplier, Carbon Dioxide Capacity Multiplier, Generic Contaminant Capacity Multiplier
Zone Volume Capacitance Multiplier,   1.000 ,   1.000,   1.000,   1.000
! <Load Timesteps in Zone Design Calculation Averaging Window>, Value
 Load Timesteps in Zone Design Calculation Averaging Window,    6
! <Heating Sizing Factor Information>, Sizing Factor ID, Value
 Heating Sizing Factor Information, Global,   1.0000    
! <Cooling Sizing Factor Information>, Sizing Factor ID, Value
 Cooling Sizing Factor Information, Global,   1.0000    
! <Sky Daylight Factors>, MonthAndDay, Zone Name, Window Name, Reference Point, Daylight Factor
 Sky Daylight Factors,Clear Sky,07/21,PERIMETER_BOT_ZN_1 ZN,PERIMETER_BOT_ZN_1_WALL_SOUTH_WINDOW,PERIMETER_BOT_ZN_1 DAYLT SENSOR 1,6.5144E-002
 Sky Daylight Factors,Clear Sky,07/21,PERIMETER_BOT_ZN_1 ZN,PERIMETER_BOT_ZN_1_WALL_SOUTH_WINDOW,PERIMETER_BOT_ZN_1 DAYLT SENSOR 2,6.4887E-002
 Sky Daylight Factors,Clear Turbid Sky,07/21,PERIMETER_BOT_ZN_1 ZN,PERIMETER_BOT_ZN_1_WALL_SOUTH_WINDOW,PERIMETER_BOT_ZN_1 DAYLT SENSOR 1,6.3243E-002
 Sky Daylight Factors,Clear Turbid Sky,07/21,PERIMETER_BOT_ZN_1 ZN,PERIMETER_BOT_ZN_1_WALL_SOUTH_WINDOW,PERIMETER_BOT_ZN_1 DAYLT SENSOR 2,6.2703E-002
 Sky Daylight Factors,Intermediate Sky,07/21,PERIMETER_BOT_ZN_1 ZN,PERIMETER_BOT_ZN_1_WALL_SOUTH_WINDOW,PERIMETER_BOT_ZN_1 DAYLT SENSOR 1,5.1630E-002
 Sky Daylight Factors,Intermediate Sky,07/21,PERIMETER_BOT_ZN_1 ZN,PERIMETER_BOT_ZN_1_WALL_SOUTH_WINDOW,PERIMETER_BOT_ZN_1 DAYLT SENSOR 2,5.1204E-002
 Sky Daylight Factors,Overcast Sky,07/21,PERIMETER_BOT_ZN_1 ZN,PERIMETER_BOT_ZN_1_WALL_SOUTH_WINDOW,PERIMETER_BOT_ZN_1 DAYLT SENSOR 1,4.5104E-002
 Sky Daylight Factors,Overcast Sky,07/21,PERIMETER_BOT_ZN_1 ZN,PERIMETER_BOT_ZN_1_WALL_SOUTH_WINDOW,PERIMETER_BOT_ZN_1 DAYLT SENSOR 2,4.5295E-002
 Sky Daylight Factors,Clear Sky,07/21,PERIMETER_BOT_ZN_2 ZN,PERIMETER_BOT_ZN_2_WALL_EAST_WINDOW,PERIMETER_BOT_ZN_2 DAYLT SENSOR 1,4.6140E-002
 Sky Daylight Factors,Clear Sky,07/21,PERIMETER_BOT_ZN_2 ZN,PERIMETER_BOT_ZN_2_WALL_EAST_WINDOW,PERIMETER_BOT_ZN_2 DAYLT SENSOR 2,4.5176E-002
 Sky Daylight Factors,Clear Turbid Sky,07/21,PERIMETER_BOT_ZN_2 ZN,PERIMETER_BOT_ZN_2_WALL_EAST_WINDOW,PERIMETER_BOT_ZN_2 DAYLT SENSOR 1,4.1085E-002
 Sky Daylight Factors,Clear Turbid Sky,07/21,PERIMETER_BOT_ZN_2 ZN,PERIMETER_BOT_ZN_2_WALL_EAST_WINDOW,PERIMETER_BOT_ZN_2 DAYLT SENSOR 2,4.0219E-002
 Sky Daylight Factors,Intermediate Sky,07/21,PERIMETER_BOT_ZN_2 ZN,PERIMETER_BOT_ZN_2_WALL_EAST_WINDOW,PERIMETER_BOT_ZN_2 DAYLT SENSOR 1,3.3902E-002
 Sky Daylight Factors,Intermediate Sky,07/21,PERIMETER_BOT_ZN_2 ZN,PERIMETER_BOT_ZN_2_WALL_EAST_WINDOW,PERIMETER_BOT_ZN_2 DAYLT SENSOR 2,3.3338E-002
 Sky Daylight Factors,Overcast Sky,07/21,PERIMETER_BOT_ZN_2 ZN,PERIMETER_BOT_ZN_2_WALL_EAST_WINDOW,PERIMETER_BOT_ZN_2 DAYLT SENSOR 1,4.5679E-002
 Sky Daylight Factors,Overcast Sky,07/21,PERIMETER_BOT_ZN_2 ZN,PERIMETER_BOT_ZN_2_WALL_EAST_WINDOW,PERIMETER_BOT_ZN_2 DAYLT SENSOR 2,4.5198E-002
 Sky Daylight Factors,Clear Sky,07/21,PERIMETER_BOT_ZN_3 ZN,PERIMETER_BOT_ZN_3_WALL_NORTH_WINDOW,PERIMETER_BOT_ZN_3 DAYLT SENSOR 1,3.6907E-002
 Sky Daylight Factors,Clear Sky,07/21,PERIMETER_BOT_ZN_3 ZN,PERIMETER_BOT_ZN_3_WALL_NORTH_WINDOW,PERIMETER_BOT_ZN_3 DAYLT SENSOR 2,3.6394E-002
 Sky Daylight Factors,Clear Turbid Sky,07/21,PERIMETER_BOT_ZN_3 ZN,PERIMETER_BOT_ZN_3_WALL_NORTH_WINDOW,PERIMETER_BOT_ZN_3 DAYLT SENSOR 1,3.0917E-002
 Sky Daylight Factors,Clear Turbid Sky,07/21,PERIMETER_BOT_ZN_3 ZN,PERIMETER_BOT_ZN_3_WALL_NORTH_WINDOW,PERIMETER_BOT_ZN_3 DAYLT SENSOR 2,3.0504E-002
 Sky Daylight Factors,Intermediate Sky,07/21,PERIMETER_BOT_ZN_3 ZN,PERIMETER_BOT_ZN_3_WALL_NORTH_WINDOW,PERIMETER_BOT_ZN_3 DAYLT SENSOR 1,2.3174E-002
 Sky Daylight Factors,Intermediate Sky,07/21,PERIMETER_BOT_ZN_3 ZN,PERIMETER_BOT_ZN_3_WALL_NORTH_WINDOW,PERIMETER_BOT_ZN_3 DAYLT SENSOR 2,2.2967E-002
 Sky Daylight Factors,Overcast Sky,07/21,PERIMETER_BOT_ZN_3 ZN,PERIMETER_BOT_ZN_3_WALL_NORTH_WINDOW,PERIMETER_BOT_ZN_3 DAYLT SENSOR 1,4.5295E-002
 Sky Daylight Factors,Overcast Sky,07/21,PERIMETER_BOT_ZN_3 ZN,PERIMETER_BOT_ZN_3_WALL_NORTH_WINDOW,PERIMETER_BOT_ZN_3 DAYLT SENSOR 2,4.5103E-002
 Sky Daylight Factors,Clear Sky,07/21,PERIMETER_BOT_ZN_4 ZN,PERIMETER_BOT_ZN_4_WALL_WEST_WINDOW,PERIMETER_BOT_ZN_4 DAYLT SENSOR 1,4.6763E-002
 Sky Daylight Factors,Clear Sky,07/21,PERIMETER_BOT_ZN_4 ZN,PERIMETER_BOT_ZN_4_WALL_WEST_WINDOW,PERIMETER_BOT_ZN_4 DAYLT SENSOR 2,4.6129E-002
 Sky Daylight Factors,Clear Turbid Sky,07/21,PERIMETER_BOT_ZN_4 ZN,PERIMETER_BOT_ZN_4_WALL_WEST_WINDOW,PERIMETER_BOT_ZN_4 DAYLT SENSOR 1,4.1788E-002
 Sky Daylight Factors,Clear Turbid Sky,07/21,PERIMETER_BOT_ZN_4 ZN,PERIMETER_BOT_ZN_4_WALL_WEST_WINDOW,PERIMETER_BOT_ZN_4 DAYLT SENSOR 2,4.1294E-002
 Sky Daylight Factors,Intermediate Sky,07/21,PERIMETER_BOT_ZN_4 ZN,PERIMETER_BOT_ZN_4_WALL_WEST_WINDOW,PERIMETER_BOT_ZN_4 DAYLT SENSOR 1,3.4541E-002
 Sky Daylight Factors,Intermediate Sky,07/21,PERIMETER_BOT_ZN_4 ZN,PERIMETER_BOT_ZN_4_WALL_WEST_WINDOW,PERIMETER_BOT_ZN_4 DAYLT SENSOR 2,3.4307E-002
 Sky Daylight Factors,Overcast Sky,07/21,PERIMETER_BOT_ZN_4 ZN,PERIMETER_BOT_ZN_4_WALL_WEST_WINDOW,PERIMETER_BOT_ZN_4 DAYLT SENSOR 1,4.5679E-002
 Sky Daylight Factors,Overcast Sky,07/21,PERIMETER_BOT_ZN_4 ZN,PERIMETER_BOT_ZN_4_WALL_WEST_WINDOW,PERIMETER_BOT_ZN_4 DAYLT SENSOR 2,4.5186E-002
 Sky Daylight Factors,Clear Sky,07/21,PERIMETER_MID_ZN_1 ZN,PERIMETER_MID_ZN_1_WALL_SOUTH_WINDOW,PERIMETER_MID_ZN_1 DAYLT SENSOR 1,6.3343E-002
 Sky Daylight Factors,Clear Sky,07/21,PERIMETER_MID_ZN_1 ZN,PERIMETER_MID_ZN_1_WALL_SOUTH_WINDOW,PERIMETER_MID_ZN_1 DAYLT SENSOR 2,6.3086E-002
 Sky Daylight Factors,Clear Turbid Sky,07/21,PERIMETER_MID_ZN_1 ZN,PERIMETER_MID_ZN_1_WALL_SOUTH_WINDOW,PERIMETER_MID_ZN_1 DAYLT SENSOR 1,6.1514E-002
 Sky Daylight Factors,Clear Turbid Sky,07/21,PERIMETER_MID_ZN_1 ZN,PERIMETER_MID_ZN_1_WALL_SOUTH_WINDOW,PERIMETER_MID_ZN_1 DAYLT SENSOR 2,6.0974E-002
 Sky Daylight Factors,Intermediate Sky,07/21,PERIMETER_MID_ZN_1 ZN,PERIMETER_MID_ZN_1_WALL_SOUTH_WINDOW,PERIMETER_MID_ZN_1 DAYLT SENSOR 1,5.0320E-002
 Sky Daylight Factors,Intermediate Sky,07/21,PERIMETER_MID_ZN_1 ZN,PERIMETER_MID_ZN_1_WALL_SOUTH_WINDOW,PERIMETER_MID_ZN_1 DAYLT SENSOR 2,4.9894E-002
 Sky Daylight Factors,Overcast Sky,07/21,PERIMETER_MID_ZN_1 ZN,PERIMETER_MID_ZN_1_WALL_SOUTH_WINDOW,PERIMETER_MID_ZN_1 DAYLT SENSOR 1,4.4108E-002
 Sky Daylight Factors,Overcast Sky,07/21,PERIMETER_MID_ZN_1 ZN,PERIMETER_MID_ZN_1_WALL_SOUTH_WINDOW,PERIMETER_MID_ZN_1 DAYLT SENSOR 2,4.4300E-002
 Sky Daylight Factors,Clear Sky,07/21,PERIMETER_MID_ZN_2 ZN,PERIMETER_MID_ZN_2_WALL_EAST_WINDOW,PERIMETER_MID_ZN_2 DAYLT SENSOR 1,4.5078E-002
 Sky Daylight Factors,Clear Sky,07/21,PERIMETER_MID_ZN_2 ZN,PERIMETER_MID_ZN_2_WALL_EAST_WINDOW,PERIMETER_MID_ZN_2 DAYLT SENSOR 2,4.4114E-002
 Sky Daylight Factors,Clear Turbid Sky,07/21,PERIMETER_MID_ZN_2 ZN,PERIMETER_MID_ZN_2_WALL_EAST_WINDOW,PERIMETER_MID_ZN_2 DAYLT SENSOR 1,4.0190E-002
 Sky Daylight Factors,Clear Turbid Sky,07/21,PERIMETER_MID_ZN_2 ZN,PERIMETER_MID_ZN_2_WALL_EAST_WINDOW,PERIMETER_MID_ZN_2 DAYLT SENSOR 2,3.9324E-002
 Sky Daylight Factors,Intermediate Sky,07/21,PERIMETER_MID_ZN_2 ZN,PERIMETER_MID_ZN_2_WALL_EAST_WINDOW,PERIMETER_MID_ZN_2 DAYLT SENSOR 1,3.3276E-002
 Sky Daylight Factors,Intermediate Sky,07/21,PERIMETER_MID_ZN_2 ZN,PERIMETER_MID_ZN_2_WALL_EAST_WINDOW,PERIMETER_MID_ZN_2 DAYLT SENSOR 2,3.2712E-002
 Sky Daylight Factors,Overcast Sky,07/21,PERIMETER_MID_ZN_2 ZN,PERIMETER_MID_ZN_2_WALL_EAST_WINDOW,PERIMETER_MID_ZN_2 DAYLT SENSOR 1,4.4788E-002
 Sky Daylight Factors,Overcast Sky,07/21,PERIMETER_MID_ZN_2 ZN,PERIMETER_MID_ZN_2_WALL_EAST_WINDOW,PERIMETER_MID_ZN_2 DAYLT SENSOR 2,4.4307E-002
 Sky Daylight Factors,Clear Sky,07/21,PERIMETER_MID_ZN_3 ZN,PERIMETER_MID_ZN_3_WALL_NORTH_WINDOW,PERIMETER_MID_ZN_3 DAYLT SENSOR 1,3.6020E-002
 Sky Daylight Factors,Clear Sky,07/21,PERIMETER_MID_ZN_3 ZN,PERIMETER_MID_ZN_3_WALL_NORTH_WINDOW,PERIMETER_MID_ZN_3 DAYLT SENSOR 2,3.5507E-002
 Sky Daylight Factors,Clear Turbid Sky,07/21,PERIMETER_MID_ZN_3 ZN,PERIMETER_MID_ZN_3_WALL_NORTH_WINDOW,PERIMETER_MID_ZN_3 DAYLT SENSOR 1,3.0244E-002
 Sky Daylight Factors,Clear Turbid Sky,07/21,PERIMETER_MID_ZN_3 ZN,PERIMETER_MID_ZN_3_WALL_NORTH_WINDOW,PERIMETER_MID_ZN_3 DAYLT SENSOR 2,2.9832E-002
 Sky Daylight Factors,Intermediate Sky,07/21,PERIMETER_MID_ZN_3 ZN,PERIMETER_MID_ZN_3_WALL_NORTH_WINDOW,PERIMETER_MID_ZN_3 DAYLT SENSOR 1,2.2805E-002
 Sky Daylight Factors,Intermediate Sky,07/21,PERIMETER_MID_ZN_3 ZN,PERIMETER_MID_ZN_3_WALL_NORTH_WINDOW,PERIMETER_MID_ZN_3 DAYLT SENSOR 2,2.2597E-002
 Sky Daylight Factors,Overcast Sky,07/21,PERIMETER_MID_ZN_3 ZN,PERIMETER_MID_ZN_3_WALL_NORTH_WINDOW,PERIMETER_MID_ZN_3 DAYLT SENSOR 1,4.4300E-002
 Sky Daylight Factors,Overcast Sky,07/21,PERIMETER_MID_ZN_3 ZN,PERIMETER_MID_ZN_3_WALL_NORTH_WINDOW,PERIMETER_MID_ZN_3 DAYLT SENSOR 2,4.4107E-002
 Sky Daylight Factors,Clear Sky,07/21,PERIMETER_MID_ZN_4 ZN,PERIMETER_MID_ZN_4_WALL_WEST_WINDOW,PERIMETER_MID_ZN_4 DAYLT SENSOR 1,4.5682E-002
 Sky Daylight Factors,Clear Sky,07/21,PERIMETER_MID_ZN_4 ZN,PERIMETER_MID_ZN_4_WALL_WEST_WINDOW,PERIMETER_MID_ZN_4 DAYLT SENSOR 2,4.5048E-002
 Sky Daylight Factors,Clear Turbid Sky,07/21,PERIMETER_MID_ZN_4 ZN,PERIMETER_MID_ZN_4_WALL_WEST_WINDOW,PERIMETER_MID_ZN_4 DAYLT SENSOR 1,4.0870E-002
 Sky Daylight Factors,Clear Turbid Sky,07/21,PERIMETER_MID_ZN_4 ZN,PERIMETER_MID_ZN_4_WALL_WEST_WINDOW,PERIMETER_MID_ZN_4 DAYLT SENSOR 2,4.0376E-002
 Sky Daylight Factors,Intermediate Sky,07/21,PERIMETER_MID_ZN_4 ZN,PERIMETER_MID_ZN_4_WALL_WEST_WINDOW,PERIMETER_MID_ZN_4 DAYLT SENSOR 1,3.3895E-002
 Sky Daylight Factors,Intermediate Sky,07/21,PERIMETER_MID_ZN_4 ZN,PERIMETER_MID_ZN_4_WALL_WEST_WINDOW,PERIMETER_MID_ZN_4 DAYLT SENSOR 2,3.3660E-002
 Sky Daylight Factors,Overcast Sky,07/21,PERIMETER_MID_ZN_4 ZN,PERIMETER_MID_ZN_4_WALL_WEST_WINDOW,PERIMETER_MID_ZN_4 DAYLT SENSOR 1,4.4788E-002
 Sky Daylight Factors,Overcast Sky,07/21,PERIMETER_MID_ZN_4 ZN,PERIMETER_MID_ZN_4_WALL_WEST_WINDOW,PERIMETER_MID_ZN_4 DAYLT SENSOR 2,4.4295E-002
 Sky Daylight Factors,Clear Sky,07/21,PERIMETER_TOP_ZN_1 ZN,PERIMETER_TOP_ZN_1_WALL_SOUTH_WINDOW,PERIMETER_TOP_ZN_1 DAYLT SENSOR 1,6.3339E-002
 Sky Daylight Factors,Clear Sky,07/21,PERIMETER_TOP_ZN_1 ZN,PERIMETER_TOP_ZN_1_WALL_SOUTH_WINDOW,PERIMETER_TOP_ZN_1 DAYLT SENSOR 2,6.3082E-002
 Sky Daylight Factors,Clear Turbid Sky,07/21,PERIMETER_TOP_ZN_1 ZN,PERIMETER_TOP_ZN_1_WALL_SOUTH_WINDOW,PERIMETER_TOP_ZN_1 DAYLT SENSOR 1,6.1510E-002
 Sky Daylight Factors,Clear Turbid Sky,07/21,PERIMETER_TOP_ZN_1 ZN,PERIMETER_TOP_ZN_1_WALL_SOUTH_WINDOW,PERIMETER_TOP_ZN_1 DAYLT SENSOR 2,6.0970E-002
 Sky Daylight Factors,Intermediate Sky,07/21,PERIMETER_TOP_ZN_1 ZN,PERIMETER_TOP_ZN_1_WALL_SOUTH_WINDOW,PERIMETER_TOP_ZN_1 DAYLT SENSOR 1,5.0315E-002
 Sky Daylight Factors,Intermediate Sky,07/21,PERIMETER_TOP_ZN_1 ZN,PERIMETER_TOP_ZN_1_WALL_SOUTH_WINDOW,PERIMETER_TOP_ZN_1 DAYLT SENSOR 2,4.9889E-002
 Sky Daylight Factors,Overcast Sky,07/21,PERIMETER_TOP_ZN_1 ZN,PERIMETER_TOP_ZN_1_WALL_SOUTH_WINDOW,PERIMETER_TOP_ZN_1 DAYLT SENSOR 1,4.4104E-002
 Sky Daylight Factors,Overcast Sky,07/21,PERIMETER_TOP_ZN_1 ZN,PERIMETER_TOP_ZN_1_WALL_SOUTH_WINDOW,PERIMETER_TOP_ZN_1 DAYLT SENSOR 2,4.4296E-002
 Sky Daylight Factors,Clear Sky,07/21,PERIMETER_TOP_ZN_2 ZN,PERIMETER_TOP_ZN_2_WALL_EAST_WINDOW,PERIMETER_TOP_ZN_2 DAYLT SENSOR 1,4.5077E-002
 Sky Daylight Factors,Clear Sky,07/21,PERIMETER_TOP_ZN_2 ZN,PERIMETER_TOP_ZN_2_WALL_EAST_WINDOW,PERIMETER_TOP_ZN_2 DAYLT SENSOR 2,4.4113E-002
 Sky Daylight Factors,Clear Turbid Sky,07/21,PERIMETER_TOP_ZN_2 ZN,PERIMETER_TOP_ZN_2_WALL_EAST_WINDOW,PERIMETER_TOP_ZN_2 DAYLT SENSOR 1,4.0188E-002
 Sky Daylight Factors,Clear Turbid Sky,07/21,PERIMETER_TOP_ZN_2 ZN,PERIMETER_TOP_ZN_2_WALL_EAST_WINDOW,PERIMETER_TOP_ZN_2 DAYLT SENSOR 2,3.9322E-002
 Sky Daylight Factors,Intermediate Sky,07/21,PERIMETER_TOP_ZN_2 ZN,PERIMETER_TOP_ZN_2_WALL_EAST_WINDOW,PERIMETER_TOP_ZN_2 DAYLT SENSOR 1,3.3273E-002
 Sky Daylight Factors,Intermediate Sky,07/21,PERIMETER_TOP_ZN_2 ZN,PERIMETER_TOP_ZN_2_WALL_EAST_WINDOW,PERIMETER_TOP_ZN_2 DAYLT SENSOR 2,3.2709E-002
 Sky Daylight Factors,Overcast Sky,07/21,PERIMETER_TOP_ZN_2 ZN,PERIMETER_TOP_ZN_2_WALL_EAST_WINDOW,PERIMETER_TOP_ZN_2 DAYLT SENSOR 1,4.4784E-002
 Sky Daylight Factors,Overcast Sky,07/21,PERIMETER_TOP_ZN_2 ZN,PERIMETER_TOP_ZN_2_WALL_EAST_WINDOW,PERIMETER_TOP_ZN_2 DAYLT SENSOR 2,4.4303E-002
 Sky Daylight Factors,Clear Sky,07/21,PERIMETER_TOP_ZN_3 ZN,PERIMETER_TOP_ZN_3_WALL_NORTH_WINDOW,PERIMETER_TOP_ZN_3 DAYLT SENSOR 1,3.6020E-002
 Sky Daylight Factors,Clear Sky,07/21,PERIMETER_TOP_ZN_3 ZN,PERIMETER_TOP_ZN_3_WALL_NORTH_WINDOW,PERIMETER_TOP_ZN_3 DAYLT SENSOR 2,3.5507E-002
 Sky Daylight Factors,Clear Turbid Sky,07/21,PERIMETER_TOP_ZN_3 ZN,PERIMETER_TOP_ZN_3_WALL_NORTH_WINDOW,PERIMETER_TOP_ZN_3 DAYLT SENSOR 1,3.0244E-002
 Sky Daylight Factors,Clear Turbid Sky,07/21,PERIMETER_TOP_ZN_3 ZN,PERIMETER_TOP_ZN_3_WALL_NORTH_WINDOW,PERIMETER_TOP_ZN_3 DAYLT SENSOR 2,2.9832E-002
 Sky Daylight Factors,Intermediate Sky,07/21,PERIMETER_TOP_ZN_3 ZN,PERIMETER_TOP_ZN_3_WALL_NORTH_WINDOW,PERIMETER_TOP_ZN_3 DAYLT SENSOR 1,2.2803E-002
 Sky Daylight Factors,Intermediate Sky,07/21,PERIMETER_TOP_ZN_3 ZN,PERIMETER_TOP_ZN_3_WALL_NORTH_WINDOW,PERIMETER_TOP_ZN_3 DAYLT SENSOR 2,2.2596E-002
 Sky Daylight Factors,Overcast Sky,07/21,PERIMETER_TOP_ZN_3 ZN,PERIMETER_TOP_ZN_3_WALL_NORTH_WINDOW,PERIMETER_TOP_ZN_3 DAYLT SENSOR 1,4.4296E-002
 Sky Daylight Factors,Overcast Sky,07/21,PERIMETER_TOP_ZN_3 ZN,PERIMETER_TOP_ZN_3_WALL_NORTH_WINDOW,PERIMETER_TOP_ZN_3 DAYLT SENSOR 2,4.4103E-002
 Sky Daylight Factors,Clear Sky,07/21,PERIMETER_TOP_ZN_4 ZN,PERIMETER_TOP_ZN_4_WALL_WEST_WINDOW,PERIMETER_TOP_ZN_4 DAYLT SENSOR 1,4.5681E-002
 Sky Daylight Factors,Clear Sky,07/21,PERIMETER_TOP_ZN_4 ZN,PERIMETER_TOP_ZN_4_WALL_WEST_WINDOW,PERIMETER_TOP_ZN_4 DAYLT SENSOR 2,4.5046E-002
 Sky Daylight Factors,Clear Turbid Sky,07/21,PERIMETER_TOP_ZN_4 ZN,PERIMETER_TOP_ZN_4_WALL_WEST_WINDOW,PERIMETER_TOP_ZN_4 DAYLT SENSOR 1,4.0868E-002
 Sky Daylight Factors,Clear Turbid Sky,07/21,PERIMETER_TOP_ZN_4 ZN,PERIMETER_TOP_ZN_4_WALL_WEST_WINDOW,PERIMETER_TOP_ZN_4 DAYLT SENSOR 2,4.0374E-002
 Sky Daylight Factors,Intermediate Sky,07/21,PERIMETER_TOP_ZN_4 ZN,PERIMETER_TOP_ZN_4_WALL_WEST_WINDOW,PERIMETER_TOP_ZN_4 DAYLT SENSOR 1,3.3892E-002
 Sky Daylight Factors,Intermediate Sky,07/21,PERIMETER_TOP_ZN_4 ZN,PERIMETER_TOP_ZN_4_WALL_WEST_WINDOW,PERIMETER_TOP_ZN_4 DAYLT SENSOR 2,3.3657E-002
 Sky Daylight Factors,Overcast Sky,07/21,PERIMETER_TOP_ZN_4 ZN,PERIMETER_TOP_ZN_4_WALL_WEST_WINDOW,PERIMETER_TOP_ZN_4 DAYLT SENSOR 1,4.4784E-002
 Sky Daylight Factors,Overcast Sky,07/21,PERIMETER_TOP_ZN_4 ZN,PERIMETER_TOP_ZN_4_WALL_WEST_WINDOW,PERIMETER_TOP_ZN_4 DAYLT SENSOR 2,4.4291E-002
! <Zone Sizing Information>, Zone Name, Load Type, Calc Des Load {W}, User Des Load {W}, Calc Des Air Flow Rate {m3/s}, User Des Air Flow Rate {m3/s}, Design Day Name, Date/Time of Peak, Temperature at Peak {C}, Humidity Ratio at Peak {kgWater/kgDryAir}, Floor Area {m2}, # Occupants, Calc Outdoor Air Flow Rate {m3/s}, Calc DOAS Heat Addition Rate {W}
 Zone Sizing Information, CORE_BOTTOM ZN, Cooling, 53584.14878, 53584.14878, 3.94846, 3.94846, BUFFALO.NIAGARA.INTL.AP_NY_USA ANN CLG .4% CONDNS DB=>MWB, 7/21 08:00:00, 23.41800, 1.33548E-002, 983.53657, 52.93350, 0.42469, 0.00000
 Zone Sizing Information, CORE_BOTTOM ZN, Heating, 9940.79936, 9940.79936, 0.28609, 0.42469, BUFFALO.NIAGARA.INTL.AP_NY_USA ANN HTG 99.6% CONDNS DB, 1/21 08:20:00, -16.30000, 9.24091E-004, 983.53657, 52.93350, 0.42469, 0.00000
 Zone Sizing Information, CORE_MID ZN, Cooling, 32563.15528, 32563.15528, 2.39604, 2.39604, BUFFALO.NIAGARA.INTL.AP_NY_USA ANN CLG .4% CONDNS DB=>MWB, 7/21 08:00:00, 23.41800, 1.33548E-002, 983.53657, 52.93350, 0.42469, 0.00000
 Zone Sizing Information, CORE_MID ZN, Heating, 14665.01637, 14665.01637, 0.41820, 0.42469, BUFFALO.NIAGARA.INTL.AP_NY_USA ANN HTG 99.6% CONDNS DB, 1/21 08:00:00, -16.30000, 9.24091E-004, 983.53657, 52.93350, 0.42469, 0.00000
 Zone Sizing Information, CORE_TOP ZN, Cooling, 32911.76910, 32911.76910, 2.42182, 2.42182, BUFFALO.NIAGARA.INTL.AP_NY_USA ANN CLG .4% CONDNS DB=>MWB, 7/21 08:00:00, 23.41800, 1.33548E-002, 983.53657, 52.93350, 0.42469, 0.00000
 Zone Sizing Information, CORE_TOP ZN, Heating, 27812.77010, 27812.77010, 0.79569, 0.79569, BUFFALO.NIAGARA.INTL.AP_NY_USA ANN HTG 99.6% CONDNS DB, 1/21 08:00:00, -16.30000, 9.24091E-004, 983.53657, 52.93350, 0.42469, 0.00000
 Zone Sizing Information, PERIMETER_BOT_ZN_1 ZN, Cooling, 10574.00391, 10574.00391, 0.78518, 0.78518, BUFFALO.NIAGARA.INTL.AP_NY_USA ANN CLG .4% CONDNS DB=>MWB, 7/21 13:20:00, 29.99000, 1.33664E-002, 207.33814, 11.15885, 8.95286E-002, 0.00000
 Zone Sizing Information, PERIMETER_BOT_ZN_1 ZN, Heating, 10356.10699, 10356.10699, 0.29670, 0.29670, BUFFALO.NIAGARA.INTL.AP_NY_USA ANN HTG 99.6% CONDNS DB, 1/21 08:00:00, -16.30000, 9.24091E-004, 207.33814, 11.15885, 8.95286E-002, 0.00000
 Zone Sizing Information, PERIMETER_BOT_ZN_2 ZN, Cooling, 9449.84825, 9449.84825, 0.70170, 0.70170, BUFFALO.NIAGARA.INTL.AP_NY_USA ANN CLG .4% CONDNS DB=>MWB, 7/21 09:00:00, 25.18500, 1.33579E-002, 131.26219, 7.06447, 5.66790E-002, 0.00000
 Zone Sizing Information, PERIMETER_BOT_ZN_2 ZN, Heating, 6697.63615, 6697.63615, 0.19189, 0.19189, BUFFALO.NIAGARA.INTL.AP_NY_USA ANN HTG 99.6% CONDNS DB, 1/21 08:00:00, -16.30000, 9.24091E-004, 131.26219, 7.06447, 5.66790E-002, 0.00000
 Zone Sizing Information, PERIMETER_BOT_ZN_3 ZN, Cooling, 7110.56079, 7110.56079, 0.52801, 0.52801, BUFFALO.NIAGARA.INTL.AP_NY_USA ANN CLG .4% CONDNS DB=>MWB, 7/21 14:30:00, 30.30000, 1.33670E-002, 207.33814, 11.15885, 8.95286E-002, 0.00000
 Zone Sizing Information, PERIMETER_BOT_ZN_3 ZN, Heating, 10256.86473, 10256.86473, 0.29385, 0.29385, BUFFALO.NIAGARA.INTL.AP_NY_USA ANN HTG 99.6% CONDNS DB, 1/21 08:00:00, -16.30000, 9.24091E-004, 207.33814, 11.15885, 8.95286E-002, 0.00000
 Zone Sizing Information, PERIMETER_BOT_ZN_4 ZN, Cooling, 9684.58512, 9684.58512, 0.71914, 0.71914, BUFFALO.NIAGARA.INTL.AP_NY_USA ANN CLG .4% CONDNS DB=>MWB, 7/21 17:20:00, 28.68800, 1.33641E-002, 131.25358, 7.06401, 5.66753E-002, 0.00000
 Zone Sizing Information, PERIMETER_BOT_ZN_4 ZN, Heating, 6792.20797, 6792.20797, 0.19461, 0.19461, BUFFALO.NIAGARA.INTL.AP_NY_USA ANN HTG 99.6% CONDNS DB, 1/21 08:00:00, -16.30000, 9.24091E-004, 131.25358, 7.06401, 5.66753E-002, 0.00000
 Zone Sizing Information, PERIMETER_MID_ZN_1 ZN, Cooling, 12146.78881, 12146.78881, 0.90198, 0.90198, BUFFALO.NIAGARA.INTL.AP_NY_USA ANN CLG .4% CONDNS DB=>MWB, 7/21 13:00:00, 29.83500, 1.33661E-002, 207.33814, 11.15885, 8.95286E-002, 0.00000
 Zone Sizing Information, PERIMETER_MID_ZN_1 ZN, Heating, 9841.61425, 9841.61425, 0.28191, 0.28191, BUFFALO.NIAGARA.INTL.AP_NY_USA ANN HTG 99.6% CONDNS DB, 1/21 08:00:00, -16.30000, 9.24091E-004, 207.33814, 11.15885, 8.95286E-002, 0.00000
 Zone Sizing Information, PERIMETER_MID_ZN_2 ZN, Cooling, 11736.22592, 11736.22592, 0.86538, 0.86538, BUFFALO.NIAGARA.INTL.AP_NY_USA ANN CLG .4% CONDNS DB=>MWB, 7/21 08:00:00, 23.41800, 1.33548E-002, 131.26219, 7.06447, 5.66790E-002, 0.00000
 Zone Sizing Information, PERIMETER_MID_ZN_2 ZN, Heating, 6382.61717, 6382.61717, 0.18284, 0.18284, BUFFALO.NIAGARA.INTL.AP_NY_USA ANN HTG 99.6% CONDNS DB, 1/21 08:00:00, -16.30000, 9.24091E-004, 131.26219, 7.06447, 5.66790E-002, 0.00000
 Zone Sizing Information, PERIMETER_MID_ZN_3 ZN, Cooling, 8028.28476, 8028.28476, 0.59616, 0.59616, BUFFALO.NIAGARA.INTL.AP_NY_USA ANN CLG .4% CONDNS DB=>MWB, 7/21 14:20:00, 30.30000, 1.33670E-002, 207.33814, 11.15885, 8.95286E-002, 0.00000
 Zone Sizing Information, PERIMETER_MID_ZN_3 ZN, Heating, 9709.52914, 9709.52914, 0.27812, 0.27812, BUFFALO.NIAGARA.INTL.AP_NY_USA ANN HTG 99.6% CONDNS DB, 1/21 08:00:00, -16.30000, 9.24091E-004, 207.33814, 11.15885, 8.95286E-002, 0.00000
 Zone Sizing Information, PERIMETER_MID_ZN_4 ZN, Cooling, 11555.26100, 11555.26100, 0.85805, 0.85805, BUFFALO.NIAGARA.INTL.AP_NY_USA ANN CLG .4% CONDNS DB=>MWB, 7/21 16:50:00, 29.12200, 1.33649E-002, 131.25358, 7.06401, 5.66753E-002, 0.00000
 Zone Sizing Information, PERIMETER_MID_ZN_4 ZN, Heating, 6476.21341, 6476.21341, 0.18553, 0.18553, BUFFALO.NIAGARA.INTL.AP_NY_USA ANN HTG 99.6% CONDNS DB, 1/21 08:00:00, -16.30000, 9.24091E-004, 131.25358, 7.06401, 5.66753E-002, 0.00000
 Zone Sizing Information, PERIMETER_TOP_ZN_1 ZN, Cooling, 12586.01817, 12586.01817, 0.93460, 0.93460, BUFFALO.NIAGARA.INTL.AP_NY_USA ANN CLG .4% CONDNS DB=>MWB, 7/21 13:00:00, 29.83500, 1.33661E-002, 207.33814, 11.15885, 8.95286E-002, 0.00000
 Zone Sizing Information, PERIMETER_TOP_ZN_1 ZN, Heating, 12454.00101, 12454.00101, 0.35691, 0.35691, BUFFALO.NIAGARA.INTL.AP_NY_USA ANN HTG 99.6% CONDNS DB, 1/21 08:00:00, -16.30000, 9.24091E-004, 207.33814, 11.15885, 8.95286E-002, 0.00000
 Zone Sizing Information, PERIMETER_TOP_ZN_2 ZN, Cooling, 11760.25416, 11760.25416, 0.86716, 0.86716, BUFFALO.NIAGARA.INTL.AP_NY_USA ANN CLG .4% CONDNS DB=>MWB, 7/21 08:00:00, 23.41800, 1.33548E-002, 131.26219, 7.06447, 5.66790E-002, 0.00000
 Zone Sizing Information, PERIMETER_TOP_ZN_2 ZN, Heating, 8034.24164, 8034.24164, 0.23025, 0.23025, BUFFALO.NIAGARA.INTL.AP_NY_USA ANN HTG 99.6% CONDNS DB, 1/21 08:00:00, -16.30000, 9.24091E-004, 131.26219, 7.06447, 5.66790E-002, 0.00000
 Zone Sizing Information, PERIMETER_TOP_ZN_3 ZN, Cooling, 8575.23553, 8575.23553, 0.63677, 0.63677, BUFFALO.NIAGARA.INTL.AP_NY_USA ANN CLG .4% CONDNS DB=>MWB, 7/21 14:40:00, 30.30000, 1.33670E-002, 207.33814, 11.15885, 8.95286E-002, 0.00000
 Zone Sizing Information, PERIMETER_TOP_ZN_3 ZN, Heating, 12348.45852, 12348.45852, 0.35388, 0.35388, BUFFALO.NIAGARA.INTL.AP_NY_USA ANN HTG 99.6% CONDNS DB, 1/21 08:00:00, -16.30000, 9.24091E-004, 207.33814, 11.15885, 8.95286E-002, 0.00000
 Zone Sizing Information, PERIMETER_TOP_ZN_4 ZN, Cooling, 11927.33697, 11927.33697, 0.88568, 0.88568, BUFFALO.NIAGARA.INTL.AP_NY_USA ANN CLG .4% CONDNS DB=>MWB, 7/21 16:50:00, 29.12200, 1.33649E-002, 131.25358, 7.06401, 5.66753E-002, 0.00000
 Zone Sizing Information, PERIMETER_TOP_ZN_4 ZN, Heating, 8130.68406, 8130.68406, 0.23302, 0.23302, BUFFALO.NIAGARA.INTL.AP_NY_USA ANN HTG 99.6% CONDNS DB, 1/21 08:00:00, -16.30000, 9.24091E-004, 131.25358, 7.06401, 5.66753E-002, 0.00000
! <System Sizing Information>, System Name, Load Type, Peak Load Kind, User Design Capacity, Calc Des Air Flow Rate [m3/s], User Des Air Flow Rate [m3/s], Design Day Name, Date/Time of Peak
 System Sizing Information, 5 ZONE PVAV, Cooling, Sensible, 86864.88, 5.99399, 5.99399, BUFFALO.NIAGARA.INTL.AP_NY_USA ANN CLG .4% CONDNS DB=>MWB, 7/21 00:00:00
 System Sizing Information, 5 ZONE PVAV, Heating, Sensible, 40941.32, 1.40174, 1.40174, BUFFALO.NIAGARA.INTL.AP_NY_USA ANN HTG 99.6% CONDNS DB, 1/21 18:00:00
 System Sizing Information, 5 ZONE PVAV 1, Cooling, Sensible, 69683.61, 4.75782, 4.75782, BUFFALO.NIAGARA.INTL.AP_NY_USA ANN CLG .4% CONDNS DB=>MWB, 7/21 00:00:00
 System Sizing Information, 5 ZONE PVAV 1, Heating, Sensible, 41063.28, 1.35309, 1.35309, BUFFALO.NIAGARA.INTL.AP_NY_USA ANN HTG 99.6% CONDNS DB, 1/21 12:00:00
 System Sizing Information, 5 ZONE PVAV 2, Cooling, Sensible, 73974.66, 4.90984, 4.90984, BUFFALO.NIAGARA.INTL.AP_NY_USA ANN CLG .4% CONDNS DB=>MWB, 7/21 00:00:00
 System Sizing Information, 5 ZONE PVAV 2, Heating, Sensible, 40935.59, 1.96975, 1.96975, BUFFALO.NIAGARA.INTL.AP_NY_USA ANN HTG 99.6% CONDNS DB, 1/21 06:10:00
! <Component Sizing Information>, Component Type, Component Name, Input Field Description, Value
 Component Sizing Information, AirTerminal:SingleDuct:VAV:Reheat, CORE_BOTTOM ZN VAV TERMINAL, Design Size Maximum Air Flow Rate [m3/s], 3.94846
 Component Sizing Information, AirTerminal:SingleDuct:VAV:Reheat, CORE_BOTTOM ZN VAV TERMINAL, Design Size Constant Minimum Air Flow Fraction, 0.18981
 Component Sizing Information, AirTerminal:SingleDuct:VAV:Reheat, CORE_BOTTOM ZN VAV TERMINAL, User-Specified Constant Minimum Air Flow Fraction, 0.21461
 Component Sizing Information, AirTerminal:SingleDuct:VAV:Reheat, CORE_BOTTOM ZN VAV TERMINAL, Design Size Minimum Air Flow Rate [m3/s], 0.84737
 Component Sizing Information, AirTerminal:SingleDuct:VAV:Reheat, CORE_BOTTOM ZN VAV TERMINAL, Design Size Maximum Flow per Zone Floor Area during Reheat [m3/s-m2], 8.61557E-004
 Component Sizing Information, AirTerminal:SingleDuct:VAV:Reheat, CORE_BOTTOM ZN VAV TERMINAL, Design Size Maximum Flow Fraction during Reheat [], 0.21461
 Component Sizing Information, Coil:Heating:Electric, CORE_BOTTOM ZN ELECTRIC REHEAT COIL, Design Size Nominal Capacity [W], 37819.78785
 Component Sizing Information, AirTerminal:SingleDuct:VAV:Reheat, CORE_MID ZN VAV TERMINAL, Design Size Maximum Air Flow Rate [m3/s], 2.39604
 Component Sizing Information, AirTerminal:SingleDuct:VAV:Reheat, CORE_MID ZN VAV TERMINAL, Design Size Constant Minimum Air Flow Fraction, 0.31279
 Component Sizing Information, AirTerminal:SingleDuct:VAV:Reheat, CORE_MID ZN VAV TERMINAL, User-Specified Constant Minimum Air Flow Fraction, 0.21079
 Component Sizing Information, AirTerminal:SingleDuct:VAV:Reheat, CORE_MID ZN VAV TERMINAL, Design Size Minimum Air Flow Rate [m3/s], 0.50506
 Component Sizing Information, AirTerminal:SingleDuct:VAV:Reheat, CORE_MID ZN VAV TERMINAL, Design Size Maximum Flow per Zone Floor Area during Reheat [m3/s-m2], 5.13513E-004
 Component Sizing Information, AirTerminal:SingleDuct:VAV:Reheat, CORE_MID ZN VAV TERMINAL, Design Size Maximum Flow Fraction during Reheat [], 0.21079
 Component Sizing Information, Coil:Heating:Electric, CORE_MID ZN ELECTRIC REHEAT COIL, Design Size Nominal Capacity [W], 22541.67539
 Component Sizing Information, AirTerminal:SingleDuct:VAV:Reheat, CORE_TOP ZN VAV TERMINAL, Design Size Maximum Air Flow Rate [m3/s], 2.42182
 Component Sizing Information, AirTerminal:SingleDuct:VAV:Reheat, CORE_TOP ZN VAV TERMINAL, Design Size Constant Minimum Air Flow Fraction, 0.30946
 Component Sizing Information, AirTerminal:SingleDuct:VAV:Reheat, CORE_TOP ZN VAV TERMINAL, User-Specified Constant Minimum Air Flow Fraction, 0.20642
 Component Sizing Information, AirTerminal:SingleDuct:VAV:Reheat, CORE_TOP ZN VAV TERMINAL, Design Size Minimum Air Flow Rate [m3/s], 0.49991
 Component Sizing Information, AirTerminal:SingleDuct:VAV:Reheat, CORE_TOP ZN VAV TERMINAL, Design Size Maximum Flow per Zone Floor Area during Reheat [m3/s-m2], 5.08280E-004
 Component Sizing Information, AirTerminal:SingleDuct:VAV:Reheat, CORE_TOP ZN VAV TERMINAL, Design Size Maximum Flow Fraction during Reheat [], 0.20642
 Component Sizing Information, Coil:Heating:Electric, CORE_TOP ZN ELECTRIC REHEAT COIL, Design Size Nominal Capacity [W], 35513.04782
 Component Sizing Information, AirTerminal:SingleDuct:VAV:Reheat, PERIMETER_BOT_ZN_1 ZN VAV TERMINAL, Design Size Maximum Air Flow Rate [m3/s], 0.78518
 Component Sizing Information, AirTerminal:SingleDuct:VAV:Reheat, PERIMETER_BOT_ZN_1 ZN VAV TERMINAL, Design Size Constant Minimum Air Flow Fraction, 0.20122
 Component Sizing Information, AirTerminal:SingleDuct:VAV:Reheat, PERIMETER_BOT_ZN_1 ZN VAV TERMINAL, User-Specified Constant Minimum Air Flow Fraction, 0.20268
 Component Sizing Information, AirTerminal:SingleDuct:VAV:Reheat, PERIMETER_BOT_ZN_1 ZN VAV TERMINAL, Design Size Minimum Air Flow Rate [m3/s], 0.15914
 Component Sizing Information, AirTerminal:SingleDuct:VAV:Reheat, PERIMETER_BOT_ZN_1 ZN VAV TERMINAL, Design Size Maximum Flow per Zone Floor Area during Reheat [m3/s-m2], 7.67548E-004
 Component Sizing Information, AirTerminal:SingleDuct:VAV:Reheat, PERIMETER_BOT_ZN_1 ZN VAV TERMINAL, Design Size Maximum Flow Fraction during Reheat [], 0.20268
 Component Sizing Information, Coil:Heating:Electric, PERIMETER_BOT_ZN_1 ZN ELECTRIC REHEAT COIL, Design Size Nominal Capacity [W], 13242.14897
 Component Sizing Information, AirTerminal:SingleDuct:VAV:Reheat, PERIMETER_BOT_ZN_2 ZN VAV TERMINAL, Design Size Maximum Air Flow Rate [m3/s], 0.70170
 Component Sizing Information, AirTerminal:SingleDuct:VAV:Reheat, PERIMETER_BOT_ZN_2 ZN VAV TERMINAL, Design Size Constant Minimum Air Flow Fraction, 0.14254
 Component Sizing Information, AirTerminal:SingleDuct:VAV:Reheat, PERIMETER_BOT_ZN_2 ZN VAV TERMINAL, User-Specified Constant Minimum Air Flow Fraction, 0.20000
 Component Sizing Information, AirTerminal:SingleDuct:VAV:Reheat, PERIMETER_BOT_ZN_2 ZN VAV TERMINAL, Design Size Minimum Air Flow Rate [m3/s], 0.14034
 Component Sizing Information, AirTerminal:SingleDuct:VAV:Reheat, PERIMETER_BOT_ZN_2 ZN VAV TERMINAL, Design Size Maximum Flow per Zone Floor Area during Reheat [m3/s-m2], 1.06916E-003
 Component Sizing Information, AirTerminal:SingleDuct:VAV:Reheat, PERIMETER_BOT_ZN_2 ZN VAV TERMINAL, Design Size Maximum Flow Fraction during Reheat [], 0.20000
 Component Sizing Information, Coil:Heating:Electric, PERIMETER_BOT_ZN_2 ZN ELECTRIC REHEAT COIL, Design Size Nominal Capacity [W], 8564.48910
 Component Sizing Information, AirTerminal:SingleDuct:VAV:Reheat, PERIMETER_BOT_ZN_3 ZN VAV TERMINAL, Design Size Maximum Air Flow Rate [m3/s], 0.52801
 Component Sizing Information, AirTerminal:SingleDuct:VAV:Reheat, PERIMETER_BOT_ZN_3 ZN VAV TERMINAL, Design Size Constant Minimum Air Flow Fraction, 0.29922
 Component Sizing Information, AirTerminal:SingleDuct:VAV:Reheat, PERIMETER_BOT_ZN_3 ZN VAV TERMINAL, User-Specified Constant Minimum Air Flow Fraction, 0.30066
 Component Sizing Information, AirTerminal:SingleDuct:VAV:Reheat, PERIMETER_BOT_ZN_3 ZN VAV TERMINAL, Design Size Minimum Air Flow Rate [m3/s], 0.15875
 Component Sizing Information, AirTerminal:SingleDuct:VAV:Reheat, PERIMETER_BOT_ZN_3 ZN VAV TERMINAL, Design Size Maximum Flow per Zone Floor Area during Reheat [m3/s-m2], 7.65661E-004
 Component Sizing Information, AirTerminal:SingleDuct:VAV:Reheat, PERIMETER_BOT_ZN_3 ZN VAV TERMINAL, Design Size Maximum Flow Fraction during Reheat [], 0.30066
 Component Sizing Information, Coil:Heating:Electric, PERIMETER_BOT_ZN_3 ZN ELECTRIC REHEAT COIL, Design Size Nominal Capacity [W], 13114.99353
 Component Sizing Information, AirTerminal:SingleDuct:VAV:Reheat, PERIMETER_BOT_ZN_4 ZN VAV TERMINAL, Design Size Maximum Air Flow Rate [m3/s], 0.71914
 Component Sizing Information, AirTerminal:SingleDuct:VAV:Reheat, PERIMETER_BOT_ZN_4 ZN VAV TERMINAL, Design Size Constant Minimum Air Flow Fraction, 0.13908
 Component Sizing Information, AirTerminal:SingleDuct:VAV:Reheat, PERIMETER_BOT_ZN_4 ZN VAV TERMINAL, User-Specified Constant Minimum Air Flow Fraction, 0.20000
 Component Sizing Information, AirTerminal:SingleDuct:VAV:Reheat, PERIMETER_BOT_ZN_4 ZN VAV TERMINAL, Design Size Minimum Air Flow Rate [m3/s], 0.14383
 Component Sizing Information, AirTerminal:SingleDuct:VAV:Reheat, PERIMETER_BOT_ZN_4 ZN VAV TERMINAL, Design Size Maximum Flow per Zone Floor Area during Reheat [m3/s-m2], 1.09580E-003
 Component Sizing Information, AirTerminal:SingleDuct:VAV:Reheat, PERIMETER_BOT_ZN_4 ZN VAV TERMINAL, Design Size Maximum Flow Fraction during Reheat [], 0.20000
 Component Sizing Information, Coil:Heating:Electric, PERIMETER_BOT_ZN_4 ZN ELECTRIC REHEAT COIL, Design Size Nominal Capacity [W], 8685.67827
 Component Sizing Information, AirTerminal:SingleDuct:VAV:Reheat, PERIMETER_MID_ZN_1 ZN VAV TERMINAL, Design Size Maximum Air Flow Rate [m3/s], 0.90198
 Component Sizing Information, AirTerminal:SingleDuct:VAV:Reheat, PERIMETER_MID_ZN_1 ZN VAV TERMINAL, Design Size Constant Minimum Air Flow Fraction, 0.17516
 Component Sizing Information, AirTerminal:SingleDuct:VAV:Reheat, PERIMETER_MID_ZN_1 ZN VAV TERMINAL, User-Specified Constant Minimum Air Flow Fraction, 0.21079
 Component Sizing Information, AirTerminal:SingleDuct:VAV:Reheat, PERIMETER_MID_ZN_1 ZN VAV TERMINAL, Design Size Minimum Air Flow Rate [m3/s], 0.19013
 Component Sizing Information, AirTerminal:SingleDuct:VAV:Reheat, PERIMETER_MID_ZN_1 ZN VAV TERMINAL, Design Size Maximum Flow per Zone Floor Area during Reheat [m3/s-m2], 9.16987E-004
 Component Sizing Information, AirTerminal:SingleDuct:VAV:Reheat, PERIMETER_MID_ZN_1 ZN VAV TERMINAL, Design Size Maximum Flow Fraction during Reheat [], 0.21079
 Component Sizing Information, Coil:Heating:Electric, PERIMETER_MID_ZN_1 ZN ELECTRIC REHEAT COIL, Design Size Nominal Capacity [W], 12582.29944
 Component Sizing Information, AirTerminal:SingleDuct:VAV:Reheat, PERIMETER_MID_ZN_2 ZN VAV TERMINAL, Design Size Maximum Air Flow Rate [m3/s], 0.86538
 Component Sizing Information, AirTerminal:SingleDuct:VAV:Reheat, PERIMETER_MID_ZN_2 ZN VAV TERMINAL, Design Size Constant Minimum Air Flow Fraction, 0.11558
 Component Sizing Information, AirTerminal:SingleDuct:VAV:Reheat, PERIMETER_MID_ZN_2 ZN VAV TERMINAL, User-Specified Constant Minimum Air Flow Fraction, 0.21079
 Component Sizing Information, AirTerminal:SingleDuct:VAV:Reheat, PERIMETER_MID_ZN_2 ZN VAV TERMINAL, Design Size Minimum Air Flow Rate [m3/s], 0.18241
 Component Sizing Information, AirTerminal:SingleDuct:VAV:Reheat, PERIMETER_MID_ZN_2 ZN VAV TERMINAL, Design Size Maximum Flow per Zone Floor Area during Reheat [m3/s-m2], 1.38968E-003
 Component Sizing Information, AirTerminal:SingleDuct:VAV:Reheat, PERIMETER_MID_ZN_2 ZN VAV TERMINAL, Design Size Maximum Flow Fraction during Reheat [], 0.21079
 Component Sizing Information, Coil:Heating:Electric, PERIMETER_MID_ZN_2 ZN ELECTRIC REHEAT COIL, Design Size Nominal Capacity [W], 8160.44735
 Component Sizing Information, AirTerminal:SingleDuct:VAV:Reheat, PERIMETER_MID_ZN_3 ZN VAV TERMINAL, Design Size Maximum Air Flow Rate [m3/s], 0.59616
 Component Sizing Information, AirTerminal:SingleDuct:VAV:Reheat, PERIMETER_MID_ZN_3 ZN VAV TERMINAL, Design Size Constant Minimum Air Flow Fraction, 0.26502
 Component Sizing Information, AirTerminal:SingleDuct:VAV:Reheat, PERIMETER_MID_ZN_3 ZN VAV TERMINAL, User-Specified Constant Minimum Air Flow Fraction, 0.21079
 Component Sizing Information, AirTerminal:SingleDuct:VAV:Reheat, PERIMETER_MID_ZN_3 ZN VAV TERMINAL, Design Size Minimum Air Flow Rate [m3/s], 0.12566
 Component Sizing Information, AirTerminal:SingleDuct:VAV:Reheat, PERIMETER_MID_ZN_3 ZN VAV TERMINAL, Design Size Maximum Flow per Zone Floor Area during Reheat [m3/s-m2], 6.06076E-004
 Component Sizing Information, AirTerminal:SingleDuct:VAV:Reheat, PERIMETER_MID_ZN_3 ZN VAV TERMINAL, Design Size Maximum Flow Fraction during Reheat [], 0.21079
 Component Sizing Information, Coil:Heating:Electric, PERIMETER_MID_ZN_3 ZN ELECTRIC REHEAT COIL, Design Size Nominal Capacity [W], 12413.05743
 Component Sizing Information, AirTerminal:SingleDuct:VAV:Reheat, PERIMETER_MID_ZN_4 ZN VAV TERMINAL, Design Size Maximum Air Flow Rate [m3/s], 0.85805
 Component Sizing Information, AirTerminal:SingleDuct:VAV:Reheat, PERIMETER_MID_ZN_4 ZN VAV TERMINAL, Design Size Constant Minimum Air Flow Fraction, 0.11656
 Component Sizing Information, AirTerminal:SingleDuct:VAV:Reheat, PERIMETER_MID_ZN_4 ZN VAV TERMINAL, User-Specified Constant Minimum Air Flow Fraction, 0.21079
 Component Sizing Information, AirTerminal:SingleDuct:VAV:Reheat, PERIMETER_MID_ZN_4 ZN VAV TERMINAL, Design Size Minimum Air Flow Rate [m3/s], 0.18087
 Component Sizing Information, AirTerminal:SingleDuct:VAV:Reheat, PERIMETER_MID_ZN_4 ZN VAV TERMINAL, Design Size Maximum Flow per Zone Floor Area during Reheat [m3/s-m2], 1.37799E-003
 Component Sizing Information, AirTerminal:SingleDuct:VAV:Reheat, PERIMETER_MID_ZN_4 ZN VAV TERMINAL, Design Size Maximum Flow Fraction during Reheat [], 0.21079
 Component Sizing Information, Coil:Heating:Electric, PERIMETER_MID_ZN_4 ZN ELECTRIC REHEAT COIL, Design Size Nominal Capacity [W], 8280.38242
 Component Sizing Information, AirTerminal:SingleDuct:VAV:Reheat, PERIMETER_TOP_ZN_1 ZN VAV TERMINAL, Design Size Maximum Air Flow Rate [m3/s], 0.93460
 Component Sizing Information, AirTerminal:SingleDuct:VAV:Reheat, PERIMETER_TOP_ZN_1 ZN VAV TERMINAL, Design Size Constant Minimum Air Flow Fraction, 0.16905
 Component Sizing Information, AirTerminal:SingleDuct:VAV:Reheat, PERIMETER_TOP_ZN_1 ZN VAV TERMINAL, User-Specified Constant Minimum Air Flow Fraction, 0.20642
 Component Sizing Information, AirTerminal:SingleDuct:VAV:Reheat, PERIMETER_TOP_ZN_1 ZN VAV TERMINAL, Design Size Minimum Air Flow Rate [m3/s], 0.19292
 Component Sizing Information, AirTerminal:SingleDuct:VAV:Reheat, PERIMETER_TOP_ZN_1 ZN VAV TERMINAL, Design Size Maximum Flow per Zone Floor Area during Reheat [m3/s-m2], 9.30457E-004
 Component Sizing Information, AirTerminal:SingleDuct:VAV:Reheat, PERIMETER_TOP_ZN_1 ZN VAV TERMINAL, Design Size Maximum Flow Fraction during Reheat [], 0.20642
 Component Sizing Information, Coil:Heating:Electric, PERIMETER_TOP_ZN_1 ZN ELECTRIC REHEAT COIL, Design Size Nominal Capacity [W], 15929.38173
 Component Sizing Information, AirTerminal:SingleDuct:VAV:Reheat, PERIMETER_TOP_ZN_2 ZN VAV TERMINAL, Design Size Maximum Air Flow Rate [m3/s], 0.86716
 Component Sizing Information, AirTerminal:SingleDuct:VAV:Reheat, PERIMETER_TOP_ZN_2 ZN VAV TERMINAL, Design Size Constant Minimum Air Flow Fraction, 0.11534
 Component Sizing Information, AirTerminal:SingleDuct:VAV:Reheat, PERIMETER_TOP_ZN_2 ZN VAV TERMINAL, User-Specified Constant Minimum Air Flow Fraction, 0.20642
 Component Sizing Information, AirTerminal:SingleDuct:VAV:Reheat, PERIMETER_TOP_ZN_2 ZN VAV TERMINAL, Design Size Minimum Air Flow Rate [m3/s], 0.17900
 Component Sizing Information, AirTerminal:SingleDuct:VAV:Reheat, PERIMETER_TOP_ZN_2 ZN VAV TERMINAL, Design Size Maximum Flow per Zone Floor Area during Reheat [m3/s-m2], 1.36368E-003
 Component Sizing Information, AirTerminal:SingleDuct:VAV:Reheat, PERIMETER_TOP_ZN_2 ZN VAV TERMINAL, Design Size Maximum Flow Fraction during Reheat [], 0.20642
 Component Sizing Information, Coil:Heating:Electric, PERIMETER_TOP_ZN_2 ZN ELECTRIC REHEAT COIL, Design Size Nominal Capacity [W], 10276.55800
 Component Sizing Information, AirTerminal:SingleDuct:VAV:Reheat, PERIMETER_TOP_ZN_3 ZN VAV TERMINAL, Design Size Maximum Air Flow Rate [m3/s], 0.63677
 Component Sizing Information, AirTerminal:SingleDuct:VAV:Reheat, PERIMETER_TOP_ZN_3 ZN VAV TERMINAL, Design Size Constant Minimum Air Flow Fraction, 0.24811
 Component Sizing Information, AirTerminal:SingleDuct:VAV:Reheat, PERIMETER_TOP_ZN_3 ZN VAV TERMINAL, User-Specified Constant Minimum Air Flow Fraction, 0.20642
 Component Sizing Information, AirTerminal:SingleDuct:VAV:Reheat, PERIMETER_TOP_ZN_3 ZN VAV TERMINAL, Design Size Minimum Air Flow Rate [m3/s], 0.13144
 Component Sizing Information, AirTerminal:SingleDuct:VAV:Reheat, PERIMETER_TOP_ZN_3 ZN VAV TERMINAL, Design Size Maximum Flow per Zone Floor Area during Reheat [m3/s-m2], 6.33952E-004
 Component Sizing Information, AirTerminal:SingleDuct:VAV:Reheat, PERIMETER_TOP_ZN_3 ZN VAV TERMINAL, Design Size Maximum Flow Fraction during Reheat [], 0.20642
 Component Sizing Information, Coil:Heating:Electric, PERIMETER_TOP_ZN_3 ZN ELECTRIC REHEAT COIL, Design Size Nominal Capacity [W], 15794.15252
 Component Sizing Information, AirTerminal:SingleDuct:VAV:Reheat, PERIMETER_TOP_ZN_4 ZN VAV TERMINAL, Design Size Maximum Air Flow Rate [m3/s], 0.88568
 Component Sizing Information, AirTerminal:SingleDuct:VAV:Reheat, PERIMETER_TOP_ZN_4 ZN VAV TERMINAL, Design Size Constant Minimum Air Flow Fraction, 0.11292
 Component Sizing Information, AirTerminal:SingleDuct:VAV:Reheat, PERIMETER_TOP_ZN_4 ZN VAV TERMINAL, User-Specified Constant Minimum Air Flow Fraction, 0.20642
 Component Sizing Information, AirTerminal:SingleDuct:VAV:Reheat, PERIMETER_TOP_ZN_4 ZN VAV TERMINAL, Design Size Minimum Air Flow Rate [m3/s], 0.18282
 Component Sizing Information, AirTerminal:SingleDuct:VAV:Reheat, PERIMETER_TOP_ZN_4 ZN VAV TERMINAL, Design Size Maximum Flow per Zone Floor Area during Reheat [m3/s-m2], 1.39289E-003
 Component Sizing Information, AirTerminal:SingleDuct:VAV:Reheat, PERIMETER_TOP_ZN_4 ZN VAV TERMINAL, Design Size Maximum Flow Fraction during Reheat [], 0.20642
 Component Sizing Information, Coil:Heating:Electric, PERIMETER_TOP_ZN_4 ZN ELECTRIC REHEAT COIL, Design Size Nominal Capacity [W], 10400.13695
 Component Sizing Information, AirLoopHVAC, 5 ZONE PVAV, Sum of Air Terminal Maximum Heating Flow Rates [m3/s], 1.44943
 Component Sizing Information, AirLoopHVAC, 5 ZONE PVAV, Sum of Air Terminal Minimum Heating Flow Rates [m3/s], 1.44943
 Component Sizing Information, AirLoopHVAC, 5 ZONE PVAV, Sum of Air Terminal Maximum Flow Rates [m3/s], 6.68249
 Component Sizing Information, AirLoopHVAC, 5 ZONE PVAV, Adjusted Heating Design Air Flow Rate [m3/s], 1.44943
 Component Sizing Information, AirLoopHVAC, 5 ZONE PVAV, Adjusted Cooling Design Air Flow Rate [m3/s], 5.99399
 Component Sizing Information, AirLoopHVAC, 5 ZONE PVAV, Adjusted Main Design Air Flow Rate [m3/s], 5.99399
 Component Sizing Information, AirLoopHVAC, 5 ZONE PVAV, User Heating Air Flow Ratio [], 0.30000
 Component Sizing Information, AirLoopHVAC, 5 ZONE PVAV, Calculated Heating Air Flow Ratio [], 0.24181
 Component Sizing Information, AirLoopHVAC, 5 ZONE PVAV 1, Sum of Air Terminal Maximum Heating Flow Rates [m3/s], 1.18413
 Component Sizing Information, AirLoopHVAC, 5 ZONE PVAV 1, Sum of Air Terminal Minimum Heating Flow Rates [m3/s], 1.18413
 Component Sizing Information, AirLoopHVAC, 5 ZONE PVAV 1, Sum of Air Terminal Maximum Flow Rates [m3/s], 5.61760
 Component Sizing Information, AirLoopHVAC, 5 ZONE PVAV 1, Adjusted Heating Design Air Flow Rate [m3/s], 1.35309
 Component Sizing Information, AirLoopHVAC, 5 ZONE PVAV 1, Adjusted Cooling Design Air Flow Rate [m3/s], 4.75782
 Component Sizing Information, AirLoopHVAC, 5 ZONE PVAV 1, Adjusted Main Design Air Flow Rate [m3/s], 4.75782
 Component Sizing Information, AirLoopHVAC, 5 ZONE PVAV 1, User Heating Air Flow Ratio [], 0.30000
 Component Sizing Information, AirLoopHVAC, 5 ZONE PVAV 1, Calculated Heating Air Flow Ratio [], 0.28439
 Component Sizing Information, AirLoopHVAC, 5 ZONE PVAV 2, Sum of Air Terminal Maximum Heating Flow Rates [m3/s], 1.18609
 Component Sizing Information, AirLoopHVAC, 5 ZONE PVAV 2, Sum of Air Terminal Minimum Heating Flow Rates [m3/s], 1.18609
 Component Sizing Information, AirLoopHVAC, 5 ZONE PVAV 2, Sum of Air Terminal Maximum Flow Rates [m3/s], 5.74603
 Component Sizing Information, AirLoopHVAC, 5 ZONE PVAV 2, Adjusted Heating Design Air Flow Rate [m3/s], 1.96975
 Component Sizing Information, AirLoopHVAC, 5 ZONE PVAV 2, Adjusted Cooling Design Air Flow Rate [m3/s], 4.90984
 Component Sizing Information, AirLoopHVAC, 5 ZONE PVAV 2, Adjusted Main Design Air Flow Rate [m3/s], 4.90984
 Component Sizing Information, AirLoopHVAC, 5 ZONE PVAV 2, User Heating Air Flow Ratio [], 0.30000
 Component Sizing Information, AirLoopHVAC, 5 ZONE PVAV 2, Calculated Heating Air Flow Ratio [], 0.40118
 Component Sizing Information, AirLoopHVAC, 5 ZONE PVAV, Design Supply Air Flow Rate [m3/s], 5.99399
 Component Sizing Information, AirLoopHVAC, 5 ZONE PVAV 1, Design Supply Air Flow Rate [m3/s], 4.75782
 Component Sizing Information, AirLoopHVAC, 5 ZONE PVAV 2, Design Supply Air Flow Rate [m3/s], 4.90984
!<Controller:MechanicalVentilation>,Name,Availability Schedule Name,Demand Controlled Ventilation {Yes/No},System Outdoor Air Method,Zone Maximum Outdoor Air Fraction,Number of Zones,Zone Name,DSOA Name,DSZAD Name
 Controller:MechanicalVentilation,5 ZONE PVAV VENTILATION CONTROLLER,OFFICEMEDIUM MINOA_MOTORIZEDDAMPER_SCHED,Yes,VentilationRateProcedure,1.00,5,CORE_BOTTOM ZN,OFFICE WHOLEBUILDING - MD OFFICE VENTILATION,,PERIMETER_BOT_ZN_1 ZN,OFFICE WHOLEBUILDING - MD OFFICE VENTILATION,,PERIMETER_BOT_ZN_2 ZN,OFFICE WHOLEBUILDING - MD OFFICE VENTILATION,,PERIMETER_BOT_ZN_3 ZN,OFFICE WHOLEBUILDING - MD OFFICE VENTILATION,,PERIMETER_BOT_ZN_4 ZN,OFFICE WHOLEBUILDING - MD OFFICE VENTILATION,
 Controller:MechanicalVentilation,5 ZONE PVAV 1 VENTILATION CONTROLLER,OFFICEMEDIUM MINOA_MOTORIZEDDAMPER_SCHED,Yes,VentilationRateProcedure,1.00,5,CORE_MID ZN,OFFICE WHOLEBUILDING - MD OFFICE VENTILATION,,PERIMETER_MID_ZN_1 ZN,OFFICE WHOLEBUILDING - MD OFFICE VENTILATION,,PERIMETER_MID_ZN_2 ZN,OFFICE WHOLEBUILDING - MD OFFICE VENTILATION,,PERIMETER_MID_ZN_3 ZN,OFFICE WHOLEBUILDING - MD OFFICE VENTILATION,,PERIMETER_MID_ZN_4 ZN,OFFICE WHOLEBUILDING - MD OFFICE VENTILATION,
 Controller:MechanicalVentilation,5 ZONE PVAV 2 VENTILATION CONTROLLER,OFFICEMEDIUM MINOA_MOTORIZEDDAMPER_SCHED,Yes,VentilationRateProcedure,1.00,5,CORE_TOP ZN,OFFICE WHOLEBUILDING - MD OFFICE VENTILATION,,PERIMETER_TOP_ZN_1 ZN,OFFICE WHOLEBUILDING - MD OFFICE VENTILATION,,PERIMETER_TOP_ZN_2 ZN,OFFICE WHOLEBUILDING - MD OFFICE VENTILATION,,PERIMETER_TOP_ZN_3 ZN,OFFICE WHOLEBUILDING - MD OFFICE VENTILATION,,PERIMETER_TOP_ZN_4 ZN,OFFICE WHOLEBUILDING - MD OFFICE VENTILATION,
 Component Sizing Information, Controller:OutdoorAir, CONTROLLER OUTDOOR AIR 1, Maximum Outdoor Air Flow Rate [m3/s], 5.99399
 Component Sizing Information, Coil:Cooling:DX:TwoSpeed, 5 ZONE PVAV 2SPD DX CLG COIL 376KBTU/HR 9.8EER, Design Size High Speed Rated Air Flow Rate [m3/s], 5.99399
 Component Sizing Information, Coil:Cooling:DX:TwoSpeed, 5 ZONE PVAV 2SPD DX CLG COIL 376KBTU/HR 9.8EER, Design Size High Speed Gross Rated Total Cooling Capacity [W], 123149.60966
 Component Sizing Information, Coil:Cooling:DX:TwoSpeed, 5 ZONE PVAV 2SPD DX CLG COIL 376KBTU/HR 9.8EER, Design Size High Speed Rated Sensible Heat Ratio, 0.76522
 Component Sizing Information, Coil:Cooling:DX:TwoSpeed, 5 ZONE PVAV 2SPD DX CLG COIL 376KBTU/HR 9.8EER, Design Size Low Speed Rated Air Flow Rate [m3/s], 1.99780
 Component Sizing Information, Coil:Cooling:DX:TwoSpeed, 5 ZONE PVAV 2SPD DX CLG COIL 376KBTU/HR 9.8EER, Design Size Low Speed Gross Rated Total Cooling Capacity [W], 41045.76490
 Component Sizing Information, Coil:Cooling:DX:TwoSpeed, 5 ZONE PVAV 2SPD DX CLG COIL 376KBTU/HR 9.8EER, Design Size Low Speed Gross Rated Sensible Heat Ratio, 0.76522
 Component Sizing Information, Coil:Cooling:DX:TwoSpeed, 5 ZONE PVAV 2SPD DX CLG COIL 376KBTU/HR 9.8EER, User-Specified Low Speed Gross Rated Sensible Heat Ratio, 0.69000
 Component Sizing Information, Fan:VariableVolume, 5 ZONE PVAV FAN, Design Size Maximum Flow Rate [m3/s], 5.99399
! <VAV DX Cooling Coil Standard Rating Information>, DX Coil Type, DX Coil Name, Fan Type, Fan Name, Standard Net Cooling Capacity {W}, Standard Net Cooling Capacity {Btu/h}, IEER {Btu/W-h}, COP 100% Capacity {W/W}, COP 75% Capacity {W/W}, COP 50% Capacity {W/W}, COP 25% Capacity {W/W}, EER 100% Capacity {Btu/W-h}, EER 75% Capacity {Btu/W-h}, EER 50% Capacity {Btu/W-h}, EER 25% Capacity {Btu/W-h}, Supply Air Flow 100% {kg/s}, Supply Air Flow 75% {kg/s},Supply Air Flow 50% {kg/s},Supply Air Flow 25% {kg/s}
 VAV DX Cooling Coil Standard Rating Information, Coil:Cooling:DX:TwoSpeed,5 ZONE PVAV 2SPD DX CLG COIL 376KBTU/HR 9.8EER,Fan:VariableVolume,5 ZONE PVAV FAN,122135.58,416743.89,11.39,2.76,3.27,3.48,3.50,9.43,11.15,11.87,11.96,6.7699,5.0382,3.1905,1.4390,
 Component Sizing Information, Coil:Heating:Fuel, 5 ZONE PVAV MAIN GAS HTG COIL, Design Size Nominal Capacity [W], 35205.66694
 Component Sizing Information, Controller:OutdoorAir, CONTROLLER OUTDOOR AIR 2, Maximum Outdoor Air Flow Rate [m3/s], 4.75782
 Component Sizing Information, Coil:Cooling:DX:TwoSpeed, 5 ZONE PVAV 1 2SPD DX CLG COIL 310KBTU/HR 9.8EER, Design Size High Speed Rated Air Flow Rate [m3/s], 4.75782
 Component Sizing Information, Coil:Cooling:DX:TwoSpeed, 5 ZONE PVAV 1 2SPD DX CLG COIL 310KBTU/HR 9.8EER, Design Size High Speed Gross Rated Total Cooling Capacity [W], 103342.52336
 Component Sizing Information, Coil:Cooling:DX:TwoSpeed, 5 ZONE PVAV 1 2SPD DX CLG COIL 310KBTU/HR 9.8EER, Design Size High Speed Rated Sensible Heat Ratio, 0.74520
 Component Sizing Information, Coil:Cooling:DX:TwoSpeed, 5 ZONE PVAV 1 2SPD DX CLG COIL 310KBTU/HR 9.8EER, Design Size Low Speed Rated Air Flow Rate [m3/s], 1.58578
 Component Sizing Information, Coil:Cooling:DX:TwoSpeed, 5 ZONE PVAV 1 2SPD DX CLG COIL 310KBTU/HR 9.8EER, Design Size Low Speed Gross Rated Total Cooling Capacity [W], 34444.06304
 Component Sizing Information, Coil:Cooling:DX:TwoSpeed, 5 ZONE PVAV 1 2SPD DX CLG COIL 310KBTU/HR 9.8EER, User-Specified Low Speed Gross Rated Sensible Heat Ratio, 0.69000
 Component Sizing Information, Fan:VariableVolume, 5 ZONE PVAV 1 FAN, Design Size Maximum Flow Rate [m3/s], 4.75782
 VAV DX Cooling Coil Standard Rating Information, Coil:Cooling:DX:TwoSpeed,5 ZONE PVAV 1 2SPD DX CLG COIL 310KBTU/HR 9.8EER,Fan:VariableVolume,5 ZONE PVAV 1 FAN,102352.93,349242.70,11.42,2.81,3.28,3.48,3.51,9.59,11.20,11.87,11.97,5.3737,4.0592,2.5980,1.1703,
 Component Sizing Information, Coil:Heating:Fuel, 5 ZONE PVAV 1 MAIN GAS HTG COIL, Design Size Nominal Capacity [W], 38808.46856
 Component Sizing Information, Controller:OutdoorAir, CONTROLLER OUTDOOR AIR 3, Maximum Outdoor Air Flow Rate [m3/s], 4.90984
 Component Sizing Information, Coil:Cooling:DX:TwoSpeed, 5 ZONE PVAV 2 2SPD DX CLG COIL 327KBTU/HR 9.8EER, Design Size High Speed Rated Air Flow Rate [m3/s], 4.90984
 Component Sizing Information, Coil:Cooling:DX:TwoSpeed, 5 ZONE PVAV 2 2SPD DX CLG COIL 327KBTU/HR 9.8EER, Design Size High Speed Gross Rated Total Cooling Capacity [W], 105034.19600
 Component Sizing Information, Coil:Cooling:DX:TwoSpeed, 5 ZONE PVAV 2 2SPD DX CLG COIL 327KBTU/HR 9.8EER, Design Size High Speed Rated Sensible Heat Ratio, 0.75049
 Component Sizing Information, Coil:Cooling:DX:TwoSpeed, 5 ZONE PVAV 2 2SPD DX CLG COIL 327KBTU/HR 9.8EER, Design Size Low Speed Rated Air Flow Rate [m3/s], 1.63645
 Component Sizing Information, Coil:Cooling:DX:TwoSpeed, 5 ZONE PVAV 2 2SPD DX CLG COIL 327KBTU/HR 9.8EER, Design Size Low Speed Gross Rated Total Cooling Capacity [W], 35007.89753
 Component Sizing Information, Coil:Cooling:DX:TwoSpeed, 5 ZONE PVAV 2 2SPD DX CLG COIL 327KBTU/HR 9.8EER, User-Specified Low Speed Gross Rated Sensible Heat Ratio, 0.69000
 Component Sizing Information, Fan:VariableVolume, 5 ZONE PVAV 2 FAN, Design Size Maximum Flow Rate [m3/s], 4.90984
 VAV DX Cooling Coil Standard Rating Information, Coil:Cooling:DX:TwoSpeed,5 ZONE PVAV 2 2SPD DX CLG COIL 327KBTU/HR 9.8EER,Fan:VariableVolume,5 ZONE PVAV 2 FAN,104007.92,354889.74,11.40,2.79,3.27,3.48,3.51,9.51,11.16,11.86,11.96,5.5454,4.1707,2.6610,1.1995,
 Component Sizing Information, Coil:Heating:Fuel, 5 ZONE PVAV 2 MAIN GAS HTG COIL, Design Size Nominal Capacity [W], 39409.88472
Water Heater Information,WaterHeater:Mixed,100GAL NATURAL GAS WATER HEATER - 100KBTU/HR 0.808 THERM EFF,0.3785,29307.1,0.973,0.1701
 Component Sizing Information, PlantLoop, MAIN SERVICE WATER LOOP, Initial Maximum Loop Flow Rate [m3/s], 5.36265E-005
 Component Sizing Information, PlantLoop, MAIN SERVICE WATER LOOP, Initial Plant Loop Volume [m3], 6.43518E-003
 Component Sizing Information, Pump:ConstantSpeed, MAIN SERVICE WATER LOOP CIRCULATOR PUMP, Initial Design Flow Rate [m3/s], 5.36265E-005
 Component Sizing Information, Pump:ConstantSpeed, MAIN SERVICE WATER LOOP CIRCULATOR PUMP, Initial Design Power Consumption [W], 2.40358
 Component Sizing Information, WaterHeater:Mixed, 100GAL NATURAL GAS WATER HEATER - 100KBTU/HR 0.808 THERM EFF, Initial Use Side Design Flow Rate [m3/s], 5.36265E-005
! <Environment>,Environment Name,Environment Type, Start Date, End Date, Start DayOfWeek, Duration {#days}, Source:Start DayOfWeek,  Use Daylight Saving, Use Holidays, Apply Weekend Holiday Rule,  Use Rain Values, Use Snow Values, Sky Temperature Model
! <Environment:Special Days>, Special Day Name, Special Day Type, Source, Start Date, Duration {#days}
! <Environment:Daylight Saving>, Daylight Saving Indicator, Source, Start Date, End Date
! <Environment:WarmupDays>, NumberofWarmupDays
Environment,RUN PERIOD 1,WeatherFileRunPeriod,01/01/2006,12/31/2006,Sunday,365,Use RunPeriod Specified Day,No,No,No,Yes,Yes,Clark and Allen
Environment:Daylight Saving,Yes,InputFile,03/12,11/05
! <Environment:Design Day Data>, Max Dry-Bulb Temp {C}, Temp Range {dC}, Temp Range Ind Type, Hum Ind Type, Hum Ind Value at Max Temp, Hum Ind Units, Pressure {Pa}, Wind Direction {deg CW from N}, Wind Speed {m/s}, Clearness, Rain, Snow
! <Environment:Design Day Misc>,DayOfYear,ASHRAE A Coeff,ASHRAE B Coeff,ASHRAE C Coeff,Solar Constant-Annual Variation,Eq of Time {minutes}, Solar Declination Angle {deg}, Solar Model
Environment:Design Day Data,30.30,9.30,DefaultMultipliers,Wetbulb,21.80,{C},98769,240,5.7,0.00,No,No
Environment:Design Day Misc,202,1084.4,0.2082,0.1365,1.0,-6.23,20.6,ASHRAETau
Environment:WarmupDays,  6
! <Tabular Report>,Style,Unit Conversion
Tabular Report,HTML,None
! <Warmup Convergence Information>,Zone Name,Environment Type/Name,Average Warmup Temperature Difference {deltaC},Std Dev Warmup Temperature Difference {deltaC},Max Temperature Pass/Fail Convergence,Min Temperature Pass/Fail Convergence,Average Warmup Load Difference {W},Std Dev Warmup Load Difference {W},Heating Load Pass/Fail Convergence,Cooling Load Pass/Fail Convergence
 Warmup Convergence Information,CORE_BOTTOM ZN,SizingPeriod: BUFFALO.NIAGARA.INTL.AP_NY_USA ANN CLG .4% CONDNS DB=>MWB HVAC Sizing Pass 1,0.3468008555,0.6539890599,Pass,Pass,0.2420098730,0.4576479379,Pass,Pass
 Warmup Convergence Information,CORE_MID ZN,SizingPeriod: BUFFALO.NIAGARA.INTL.AP_NY_USA ANN CLG .4% CONDNS DB=>MWB HVAC Sizing Pass 1,0.1603787029,0.3074971579,Pass,Pass,0.1732831330,0.4025826321,Pass,Pass
 Warmup Convergence Information,CORE_TOP ZN,SizingPeriod: BUFFALO.NIAGARA.INTL.AP_NY_USA ANN CLG .4% CONDNS DB=>MWB HVAC Sizing Pass 1,0.1559339212,0.2983112091,Pass,Pass,0.1706048744,0.3925218211,Pass,Pass
 Warmup Convergence Information,FIRSTFLOOR_PLENUM ZN,SizingPeriod: BUFFALO.NIAGARA.INTL.AP_NY_USA ANN CLG .4% CONDNS DB=>MWB HVAC Sizing Pass 1,7.2846563996E-002,0.1046934162,Pass,Pass,0.5270464679,3.0357053899,Pass,Pass
 Warmup Convergence Information,MIDFLOOR_PLENUM ZN,SizingPeriod: BUFFALO.NIAGARA.INTL.AP_NY_USA ANN CLG .4% CONDNS DB=>MWB HVAC Sizing Pass 1,3.5792122215E-002,5.9544572535E-002,Pass,Pass,0.2171875033,0.4559218934,Pass,Pass
 Warmup Convergence Information,PERIMETER_BOT_ZN_1 ZN,SizingPeriod: BUFFALO.NIAGARA.INTL.AP_NY_USA ANN CLG .4% CONDNS DB=>MWB HVAC Sizing Pass 1,0.1229094065,0.2355018074,Pass,Pass,0.1918660848,0.3798080037,Pass,Pass
 Warmup Convergence Information,PERIMETER_BOT_ZN_2 ZN,SizingPeriod: BUFFALO.NIAGARA.INTL.AP_NY_USA ANN CLG .4% CONDNS DB=>MWB HVAC Sizing Pass 1,0.1850900946,0.3572140608,Pass,Pass,0.1881768779,0.3653660076,Pass,Pass
 Warmup Convergence Information,PERIMETER_BOT_ZN_3 ZN,SizingPeriod: BUFFALO.NIAGARA.INTL.AP_NY_USA ANN CLG .4% CONDNS DB=>MWB HVAC Sizing Pass 1,0.1242700161,0.2278098679,Pass,Pass,0.1884363686,0.3753395115,Pass,Pass
 Warmup Convergence Information,PERIMETER_BOT_ZN_4 ZN,SizingPeriod: BUFFALO.NIAGARA.INTL.AP_NY_USA ANN CLG .4% CONDNS DB=>MWB HVAC Sizing Pass 1,0.1661468902,0.3191940264,Pass,Pass,0.1957916509,0.3717703428,Pass,Pass
 Warmup Convergence Information,PERIMETER_MID_ZN_1 ZN,SizingPeriod: BUFFALO.NIAGARA.INTL.AP_NY_USA ANN CLG .4% CONDNS DB=>MWB HVAC Sizing Pass 1,0.1441213858,0.2805644463,Pass,Pass,0.1545694264,0.3362798261,Pass,Pass
 Warmup Convergence Information,PERIMETER_MID_ZN_2 ZN,SizingPeriod: BUFFALO.NIAGARA.INTL.AP_NY_USA ANN CLG .4% CONDNS DB=>MWB HVAC Sizing Pass 1,0.2163493190,0.4242189100,Pass,Pass,0.1559876352,0.3360838824,Pass,Pass
 Warmup Convergence Information,PERIMETER_MID_ZN_3 ZN,SizingPeriod: BUFFALO.NIAGARA.INTL.AP_NY_USA ANN CLG .4% CONDNS DB=>MWB HVAC Sizing Pass 1,0.1255743860,0.2512777302,Pass,Pass,0.1529828696,0.3379733555,Pass,Pass
 Warmup Convergence Information,PERIMETER_MID_ZN_4 ZN,SizingPeriod: BUFFALO.NIAGARA.INTL.AP_NY_USA ANN CLG .4% CONDNS DB=>MWB HVAC Sizing Pass 1,0.1841188133,0.3528303094,Pass,Pass,0.1603311116,0.3370450143,Pass,Pass
 Warmup Convergence Information,PERIMETER_TOP_ZN_1 ZN,SizingPeriod: BUFFALO.NIAGARA.INTL.AP_NY_USA ANN CLG .4% CONDNS DB=>MWB HVAC Sizing Pass 1,0.1430379735,0.2731382200,Pass,Pass,0.1549345898,0.3368911674,Pass,Pass
 Warmup Convergence Information,PERIMETER_TOP_ZN_2 ZN,SizingPeriod: BUFFALO.NIAGARA.INTL.AP_NY_USA ANN CLG .4% CONDNS DB=>MWB HVAC Sizing Pass 1,0.2116745187,0.4119043386,Pass,Pass,0.1562163147,0.3362999981,Pass,Pass
 Warmup Convergence Information,PERIMETER_TOP_ZN_3 ZN,SizingPeriod: BUFFALO.NIAGARA.INTL.AP_NY_USA ANN CLG .4% CONDNS DB=>MWB HVAC Sizing Pass 1,0.1262559549,0.2485198489,Pass,Pass,0.1520562305,0.3371945187,Pass,Pass
 Warmup Convergence Information,PERIMETER_TOP_ZN_4 ZN,SizingPeriod: BUFFALO.NIAGARA.INTL.AP_NY_USA ANN CLG .4% CONDNS DB=>MWB HVAC Sizing Pass 1,0.1833466968,0.3466446625,Pass,Pass,0.1615881924,0.3377123992,Pass,Pass
 Warmup Convergence Information,TOPFLOOR_PLENUM ZN,SizingPeriod: BUFFALO.NIAGARA.INTL.AP_NY_USA ANN CLG .4% CONDNS DB=>MWB HVAC Sizing Pass 1,4.0513107687E-002,5.2709894091E-002,Pass,Pass,0.8807543487,3.3512474097,Pass,Pass
Environment:Design Day Data,-16.30,0.00,DefaultMultipliers,Wetbulb,-16.30,{C},98769,270,5.1,0.00,No,No
Environment:Design Day Misc, 21,1229.0,0.1415,5.7310E-002,1.0,-11.15,-20.1,ASHRAEClearSky
Environment:WarmupDays, 10
 Warmup Convergence Information,CORE_BOTTOM ZN,SizingPeriod: BUFFALO.NIAGARA.INTL.AP_NY_USA ANN HTG 99.6% CONDNS DB HVAC Sizing Pass 1,0.1078439739,0.2268519362,Pass,Pass,0.2918676642,0.4934881018,Pass,Pass
 Warmup Convergence Information,CORE_MID ZN,SizingPeriod: BUFFALO.NIAGARA.INTL.AP_NY_USA ANN HTG 99.6% CONDNS DB HVAC Sizing Pass 1,0.1144527618,0.2352314106,Pass,Pass,0.3554881595,0.7623613200,Pass,Pass
 Warmup Convergence Information,CORE_TOP ZN,SizingPeriod: BUFFALO.NIAGARA.INTL.AP_NY_USA ANN HTG 99.6% CONDNS DB HVAC Sizing Pass 1,0.1527502297,0.3016457486,Pass,Pass,0.4047160380,1.5903413490,Pass,Pass
 Warmup Convergence Information,FIRSTFLOOR_PLENUM ZN,SizingPeriod: BUFFALO.NIAGARA.INTL.AP_NY_USA ANN HTG 99.6% CONDNS DB HVAC Sizing Pass 1,3.6769871002E-002,5.4885150473E-002,Pass,Pass,0.3222049370,0.9386473300,Pass,Pass
 Warmup Convergence Information,MIDFLOOR_PLENUM ZN,SizingPeriod: BUFFALO.NIAGARA.INTL.AP_NY_USA ANN HTG 99.6% CONDNS DB HVAC Sizing Pass 1,4.3831739724E-002,6.3404048487E-002,Pass,Pass,0.3204827991,0.9427946948,Pass,Pass
 Warmup Convergence Information,PERIMETER_BOT_ZN_1 ZN,SizingPeriod: BUFFALO.NIAGARA.INTL.AP_NY_USA ANN HTG 99.6% CONDNS DB HVAC Sizing Pass 1,0.3474765415,0.4981761630,Pass,Pass,0.2484286813,0.4313169778,Pass,Pass
 Warmup Convergence Information,PERIMETER_BOT_ZN_2 ZN,SizingPeriod: BUFFALO.NIAGARA.INTL.AP_NY_USA ANN HTG 99.6% CONDNS DB HVAC Sizing Pass 1,0.3874503489,0.6039758430,Pass,Pass,0.2718234176,0.5159491608,Pass,Pass
 Warmup Convergence Information,PERIMETER_BOT_ZN_3 ZN,SizingPeriod: BUFFALO.NIAGARA.INTL.AP_NY_USA ANN HTG 99.6% CONDNS DB HVAC Sizing Pass 1,0.3423819033,0.4926572070,Pass,Pass,0.2488188412,0.4350762548,Pass,Pass
 Warmup Convergence Information,PERIMETER_BOT_ZN_4 ZN,SizingPeriod: BUFFALO.NIAGARA.INTL.AP_NY_USA ANN HTG 99.6% CONDNS DB HVAC Sizing Pass 1,0.3958305097,0.6170818453,Pass,Pass,0.2716562332,0.5141537078,Pass,Pass
 Warmup Convergence Information,PERIMETER_MID_ZN_1 ZN,SizingPeriod: BUFFALO.NIAGARA.INTL.AP_NY_USA ANN HTG 99.6% CONDNS DB HVAC Sizing Pass 1,0.3743210159,0.5345568177,Pass,Pass,0.2654080821,0.4949308948,Pass,Pass
 Warmup Convergence Information,PERIMETER_MID_ZN_2 ZN,SizingPeriod: BUFFALO.NIAGARA.INTL.AP_NY_USA ANN HTG 99.6% CONDNS DB HVAC Sizing Pass 1,0.4308703159,0.7010050022,Pass,Pass,0.3006424845,0.7735128866,Pass,Pass
 Warmup Convergence Information,PERIMETER_MID_ZN_3 ZN,SizingPeriod: BUFFALO.NIAGARA.INTL.AP_NY_USA ANN HTG 99.6% CONDNS DB HVAC Sizing Pass 1,0.3259606333,0.4349183667,Pass,Pass,0.2726908692,0.4522398553,Pass,Pass
 Warmup Convergence Information,PERIMETER_MID_ZN_4 ZN,SizingPeriod: BUFFALO.NIAGARA.INTL.AP_NY_USA ANN HTG 99.6% CONDNS DB HVAC Sizing Pass 1,0.4351969820,0.7006596288,Pass,Pass,0.3240622469,1.0394263189,Pass,Pass
 Warmup Convergence Information,PERIMETER_TOP_ZN_1 ZN,SizingPeriod: BUFFALO.NIAGARA.INTL.AP_NY_USA ANN HTG 99.6% CONDNS DB HVAC Sizing Pass 1,0.4537814376,0.6298588489,Pass,Pass,0.2664853417,0.4482798800,Pass,Pass
 Warmup Convergence Information,PERIMETER_TOP_ZN_2 ZN,SizingPeriod: BUFFALO.NIAGARA.INTL.AP_NY_USA ANN HTG 99.6% CONDNS DB HVAC Sizing Pass 1,0.5173882076,0.7746519368,Pass,Pass,0.2618069411,0.4652053271,Pass,Pass
 Warmup Convergence Information,PERIMETER_TOP_ZN_3 ZN,SizingPeriod: BUFFALO.NIAGARA.INTL.AP_NY_USA ANN HTG 99.6% CONDNS DB HVAC Sizing Pass 1,0.3732112437,0.4878821004,Pass,Pass,0.2505194279,0.4316748669,Pass,Pass
 Warmup Convergence Information,PERIMETER_TOP_ZN_4 ZN,SizingPeriod: BUFFALO.NIAGARA.INTL.AP_NY_USA ANN HTG 99.6% CONDNS DB HVAC Sizing Pass 1,0.5261482399,0.7886375429,Pass,Pass,0.2621148660,0.4647305235,Pass,Pass
 Warmup Convergence Information,TOPFLOOR_PLENUM ZN,SizingPeriod: BUFFALO.NIAGARA.INTL.AP_NY_USA ANN HTG 99.6% CONDNS DB HVAC Sizing Pass 1,0.1020507143,0.1309338430,Pass,Pass,0.2568802057,0.4389782588,Pass,Pass
Environment:Design Day Data,30.30,9.30,DefaultMultipliers,Wetbulb,21.80,{C},98769,240,5.7,0.00,No,No
Environment:Design Day Misc,202,1084.4,0.2082,0.1365,1.0,-6.23,20.6,ASHRAETau
 Component Sizing Information, PlantLoop, MAIN SERVICE WATER LOOP, Maximum Loop Flow Rate [m3/s], 5.36265E-005
 Component Sizing Information, PlantLoop, MAIN SERVICE WATER LOOP, Plant Loop Volume [m3], 6.43518E-003
 Component Sizing Information, WaterHeater:Mixed, 100GAL NATURAL GAS WATER HEATER - 100KBTU/HR 0.808 THERM EFF, Use Side Design Flow Rate [m3/s], 5.36265E-005
 Component Sizing Information, Pump:ConstantSpeed, MAIN SERVICE WATER LOOP CIRCULATOR PUMP, Design Flow Rate [m3/s], 5.36265E-005
 Component Sizing Information, Pump:ConstantSpeed, MAIN SERVICE WATER LOOP CIRCULATOR PUMP, Design Power Consumption [W], 2.40358
Environment:Design Day Data,-16.30,0.00,DefaultMultipliers,Wetbulb,-16.30,{C},98769,270,5.1,0.00,No,No
Environment:Design Day Misc, 21,1229.0,0.1415,5.7310E-002,1.0,-11.15,-20.1,ASHRAEClearSky
Environment,RUN PERIOD 1,WeatherFileRunPeriod,01/01/2006,12/31/2006,Sunday,365,Use RunPeriod Specified Day,No,No,No,Yes,Yes,Clark and Allen
Environment:Design Day Data,30.30,9.30,DefaultMultipliers,Wetbulb,21.80,{C},98769,240,5.7,0.00,No,No
Environment:Design Day Misc,202,1084.4,0.2082,0.1365,1.0,-6.23,20.6,ASHRAETau
Environment:Design Day Data,-16.30,0.00,DefaultMultipliers,Wetbulb,-16.30,{C},98769,270,5.1,0.00,No,No
Environment:Design Day Misc, 21,1229.0,0.1415,5.7310E-002,1.0,-11.15,-20.1,ASHRAEClearSky
Environment,RUN PERIOD 1,WeatherFileRunPeriod,01/01/2006,12/31/2006,Sunday,365,Use RunPeriod Specified Day,No,No,No,Yes,Yes,Clark and Allen
Environment:Daylight Saving,Yes,InputFile,03/12,11/05
Environment:WarmupDays, 16
 Warmup Convergence Information,CORE_BOTTOM ZN,RunPeriod: RUN PERIOD 1,3.9820116453E-002,2.3811350976E-002,Pass,Pass,0.4861347979,0.4892376047,Pass,Pass
 Warmup Convergence Information,CORE_MID ZN,RunPeriod: RUN PERIOD 1,1.5205664448E-002,9.8452027670E-003,Pass,Pass,0.4906194600,0.4926882563,Pass,Pass
 Warmup Convergence Information,CORE_TOP ZN,RunPeriod: RUN PERIOD 1,8.3665472694E-002,8.5797348090E-002,Pass,Pass,6.4128019170,17.5573040278,Pass,Pass
 Warmup Convergence Information,FIRSTFLOOR_PLENUM ZN,RunPeriod: RUN PERIOD 1,4.5083663650E-002,3.0143228811E-002,Pass,Pass,0.4990380749,0.4753108668,Pass,Pass
 Warmup Convergence Information,MIDFLOOR_PLENUM ZN,RunPeriod: RUN PERIOD 1,4.9991910380E-002,3.3130325383E-002,Pass,Pass,0.4976143609,0.4824200281,Pass,Pass
 Warmup Convergence Information,PERIMETER_BOT_ZN_1 ZN,RunPeriod: RUN PERIOD 1,0.1806195441,0.2353430972,Pass,Pass,4.3639408916,19.4216753413,Pass,Pass
 Warmup Convergence Information,PERIMETER_BOT_ZN_2 ZN,RunPeriod: RUN PERIOD 1,0.2768100523,0.3312648329,Pass,Pass,21.0378808232,153.0564076187,Pass,Pass
 Warmup Convergence Information,PERIMETER_BOT_ZN_3 ZN,RunPeriod: RUN PERIOD 1,0.3643099230,0.3518729996,Pass,Pass,2.5623200559,12.6516127153,Pass,Pass
 Warmup Convergence Information,PERIMETER_BOT_ZN_4 ZN,RunPeriod: RUN PERIOD 1,0.3748378725,0.3815629629,Pass,Pass,7.2709540488,20.5681212413,Pass,Pass
 Warmup Convergence Information,PERIMETER_MID_ZN_1 ZN,RunPeriod: RUN PERIOD 1,0.2418578466,0.2925119711,Pass,Pass,2.6821960522,11.8232318724,Pass,Pass
 Warmup Convergence Information,PERIMETER_MID_ZN_2 ZN,RunPeriod: RUN PERIOD 1,0.2840150185,0.3455062671,Pass,Pass,5.0580722195,37.0819693491,Pass,Pass
 Warmup Convergence Information,PERIMETER_MID_ZN_3 ZN,RunPeriod: RUN PERIOD 1,0.3329130737,0.3183975096,Pass,Pass,0.7698192217,0.8424430889,Pass,Pass
 Warmup Convergence Information,PERIMETER_MID_ZN_4 ZN,RunPeriod: RUN PERIOD 1,0.3514371281,0.3850786375,Pass,Pass,32.0152373066,351.4724853603,Pass,Pass
 Warmup Convergence Information,PERIMETER_TOP_ZN_1 ZN,RunPeriod: RUN PERIOD 1,0.3294175033,0.3944502614,Pass,Pass,3.6710843863,29.4084535434,Pass,Pass
 Warmup Convergence Information,PERIMETER_TOP_ZN_2 ZN,RunPeriod: RUN PERIOD 1,0.4106282386,0.4617091612,Pass,Pass,3.3611389325,13.5895037529,Pass,Pass
 Warmup Convergence Information,PERIMETER_TOP_ZN_3 ZN,RunPeriod: RUN PERIOD 1,0.4729789862,0.4038101023,Pass,Pass,13.1796380202,60.0231906814,Pass,Pass
 Warmup Convergence Information,PERIMETER_TOP_ZN_4 ZN,RunPeriod: RUN PERIOD 1,0.4930007178,0.5004707991,Pass,Pass,12.4678526142,94.7725767590,Pass,Pass
 Warmup Convergence Information,TOPFLOOR_PLENUM ZN,RunPeriod: RUN PERIOD 1,0.1321872151,8.9388705468E-002,Pass,Pass,0.4898090947,0.4917409065,Pass,Pass
! <Program Control Information:Threads/Parallel Sims>, Threading Supported,Maximum Number of Threads, Env Set Threads (OMP_NUM_THREADS), EP Env Set Threads (EP_OMP_NUM_THREADS), IDF Set Threads, Number of Threads Used (Interior Radiant Exchange), Number Nominal Surfaces, Number Parallel Sims
Program Control:Threads/Parallel Sims, No,1, N/A, N/A, N/A, N/A, N/A, N/A
End of Data
