Program Version,EnergyPlus, Version 9.4.0-998c4b761e, YMD=2021.07.19 13:49
! This file shows details about the branches, nodes, and other
! elements of the flow connections.
! This file is intended for use in "debugging" potential problems
! that may also be detected by the program, but may be more easily
! identified by "eye".
! This file is also intended to support software which draws a
! schematic diagram of the HVAC system.
! ===============================================================
! #Nodes,<Number of Unique Nodes>
 #Nodes,155
! <Node>,<NodeNumber>,<Node Name>,<Node Fluid Type>,<# Times Node Referenced After Definition>
 Node,1,CORE_BOTTOM ZN VAV TERMINAL OUTLET AIR NODE,Air,4
 Node,2,CORE_BOTTOM ZN RETURN AIR NODE,Air,2
 Node,3,CORE_MID ZN VAV TERMINAL OUTLET AIR NODE,Air,4
 Node,4,CORE_MID ZN RETURN AIR NODE,Air,2
 Node,5,CORE_TOP ZN VAV TERMINAL OUTLET AIR NODE,Air,4
 Node,6,CORE_TOP ZN RETURN AIR NODE,Air,2
 Node,7,PERIMETER_BOT_ZN_1 ZN VAV TERMINAL OUTLET AIR NODE,Air,4
 Node,8,PERIMETER_BOT_ZN_1 ZN RETURN AIR NODE,Air,2
 Node,9,PERIMETER_BOT_ZN_2 ZN VAV TERMINAL OUTLET AIR NODE,Air,4
 Node,10,PERIMETER_BOT_ZN_2 ZN RETURN AIR NODE,Air,2
 Node,11,PERIMETER_BOT_ZN_3 ZN VAV TERMINAL OUTLET AIR NODE,Air,4
 Node,12,PERIMETER_BOT_ZN_3 ZN RETURN AIR NODE,Air,2
 Node,13,PERIMETER_BOT_ZN_4 ZN VAV TERMINAL OUTLET AIR NODE,Air,4
 Node,14,PERIMETER_BOT_ZN_4 ZN RETURN AIR NODE,Air,2
 Node,15,PERIMETER_MID_ZN_1 ZN VAV TERMINAL OUTLET AIR NODE,Air,4
 Node,16,PERIMETER_MID_ZN_1 ZN RETURN AIR NODE,Air,2
 Node,17,PERIMETER_MID_ZN_2 ZN VAV TERMINAL OUTLET AIR NODE,Air,4
 Node,18,PERIMETER_MID_ZN_2 ZN RETURN AIR NODE,Air,2
 Node,19,PERIMETER_MID_ZN_3 ZN VAV TERMINAL OUTLET AIR NODE,Air,4
 Node,20,PERIMETER_MID_ZN_3 ZN RETURN AIR NODE,Air,2
 Node,21,PERIMETER_MID_ZN_4 ZN VAV TERMINAL OUTLET AIR NODE,Air,4
 Node,22,PERIMETER_MID_ZN_4 ZN RETURN AIR NODE,Air,2
 Node,23,PERIMETER_TOP_ZN_1 ZN VAV TERMINAL OUTLET AIR NODE,Air,4
 Node,24,PERIMETER_TOP_ZN_1 ZN RETURN AIR NODE,Air,2
 Node,25,PERIMETER_TOP_ZN_2 ZN VAV TERMINAL OUTLET AIR NODE,Air,4
 Node,26,PERIMETER_TOP_ZN_2 ZN RETURN AIR NODE,Air,2
 Node,27,PERIMETER_TOP_ZN_3 ZN VAV TERMINAL OUTLET AIR NODE,Air,4
 Node,28,PERIMETER_TOP_ZN_3 ZN RETURN AIR NODE,Air,2
 Node,29,PERIMETER_TOP_ZN_4 ZN VAV TERMINAL OUTLET AIR NODE,Air,4
 Node,30,PERIMETER_TOP_ZN_4 ZN RETURN AIR NODE,Air,2
 Node,31,5 ZONE PVAV SUPPLY OUTLET NODE,Air,10
 Node,32,5 ZONE PVAV DEMAND INLET NODE,Air,3
 Node,33,5 ZONE PVAV 1 SUPPLY OUTLET NODE,Air,10
 Node,34,5 ZONE PVAV 1 DEMAND INLET NODE,Air,3
 Node,35,5 ZONE PVAV 2 SUPPLY OUTLET NODE,Air,10
 Node,36,5 ZONE PVAV 2 DEMAND INLET NODE,Air,3
 Node,37,5 ZONE PVAV SUPPLY INLET NODE,Air,3
 Node,38,5 ZONE PVAV MIXED AIR NODE,Air,6
 Node,39,5 ZONE PVAV 2SPD DX CLG COIL 376KBTU/HR 9.8EER OUTLET AIR NODE,Air,6
 Node,40,5 ZONE PVAV MAIN GAS HTG COIL OUTLET AIR NODE,Air,8
 Node,41,5 ZONE PVAV 1 SUPPLY INLET NODE,Air,3
 Node,42,5 ZONE PVAV 1 MIXED AIR NODE,Air,6
 Node,43,5 ZONE PVAV 1 2SPD DX CLG COIL 310KBTU/HR 9.8EER OUTLET AIR NODE,Air,6
 Node,44,5 ZONE PVAV 1 MAIN GAS HTG COIL OUTLET AIR NODE,Air,8
 Node,45,5 ZONE PVAV 2 SUPPLY INLET NODE,Air,3
 Node,46,5 ZONE PVAV 2 MIXED AIR NODE,Air,6
 Node,47,5 ZONE PVAV 2 2SPD DX CLG COIL 327KBTU/HR 9.8EER OUTLET AIR NODE,Air,6
 Node,48,5 ZONE PVAV 2 MAIN GAS HTG COIL OUTLET AIR NODE,Air,8
 Node,49,MAIN SERVICE WATER LOOP SUPPLY INLET NODE,Water,2
 Node,50,MAIN SERVICE WATER LOOP CIRCULATOR PUMP OUTLET WATER NODE,Water,1
 Node,51,100GAL NATURAL GAS WATER HEATER - 100KBTU/HR 0.808 THERM EFF SUPPLY INLET WATER NODE,Water,1
 Node,52,100GAL NATURAL GAS WATER HEATER - 100KBTU/HR 0.808 THERM EFF SUPPLY OUTLET WATER NODE,Water,1
 Node,53,PIPE ADIABATIC 1 INLET WATER NODE,Water,1
 Node,54,PIPE ADIABATIC 1 OUTLET WATER NODE,Water,1
 Node,55,PIPE ADIABATIC 3 INLET WATER NODE,Water,1
 Node,56,MAIN SERVICE WATER LOOP SUPPLY OUTLET NODE,Water,4
 Node,57,MAIN SERVICE WATER LOOP DEMAND INLET NODE,Water,2
 Node,58,MAIN SERVICE WATER LOOP DEMAND INLET PIPE NODE,Water,1
 Node,59,PIPE ADIABATIC 2 INLET WATER NODE,Water,1
 Node,60,PIPE ADIABATIC 2 OUTLET WATER NODE,Water,1
 Node,61,WATER USE CONNECTIONS 1 INLET WATER NODE,Water,1
 Node,62,WATER USE CONNECTIONS 1 OUTLET WATER NODE,Water,1
 Node,63,WATER USE CONNECTIONS 2 INLET WATER NODE,Water,1
 Node,64,WATER USE CONNECTIONS 2 OUTLET WATER NODE,Water,1
 Node,65,WATER USE CONNECTIONS 3 INLET WATER NODE,Water,1
 Node,66,WATER USE CONNECTIONS 3 OUTLET WATER NODE,Water,1
 Node,67,WATER USE CONNECTIONS 4 INLET WATER NODE,Water,1
 Node,68,WATER USE CONNECTIONS 4 OUTLET WATER NODE,Water,1
 Node,69,WATER USE CONNECTIONS 5 INLET WATER NODE,Water,1
 Node,70,WATER USE CONNECTIONS 5 OUTLET WATER NODE,Water,1
 Node,71,WATER USE CONNECTIONS 6 INLET WATER NODE,Water,1
 Node,72,WATER USE CONNECTIONS 6 OUTLET WATER NODE,Water,1
 Node,73,WATER USE CONNECTIONS 7 INLET WATER NODE,Water,1
 Node,74,WATER USE CONNECTIONS 7 OUTLET WATER NODE,Water,1
 Node,75,WATER USE CONNECTIONS 8 INLET WATER NODE,Water,1
 Node,76,WATER USE CONNECTIONS 8 OUTLET WATER NODE,Water,1
 Node,77,WATER USE CONNECTIONS 9 INLET WATER NODE,Water,1
 Node,78,WATER USE CONNECTIONS 9 OUTLET WATER NODE,Water,1
 Node,79,WATER USE CONNECTIONS 10 INLET WATER NODE,Water,1
 Node,80,WATER USE CONNECTIONS 10 OUTLET WATER NODE,Water,1
 Node,81,WATER USE CONNECTIONS 11 INLET WATER NODE,Water,1
 Node,82,WATER USE CONNECTIONS 11 OUTLET WATER NODE,Water,1
 Node,83,WATER USE CONNECTIONS 12 INLET WATER NODE,Water,1
 Node,84,WATER USE CONNECTIONS 12 OUTLET WATER NODE,Water,1
 Node,85,WATER USE CONNECTIONS 13 INLET WATER NODE,Water,1
 Node,86,WATER USE CONNECTIONS 13 OUTLET WATER NODE,Water,1
 Node,87,WATER USE CONNECTIONS 14 INLET WATER NODE,Water,1
 Node,88,WATER USE CONNECTIONS 14 OUTLET WATER NODE,Water,1
 Node,89,WATER USE CONNECTIONS 15 INLET WATER NODE,Water,1
 Node,90,WATER USE CONNECTIONS 15 OUTLET WATER NODE,Water,1
 Node,91,MAIN SERVICE WATER LOOP DEMAND BYPASS PIPE INLET NODE,Water,1
 Node,92,MAIN SERVICE WATER LOOP DEMAND BYPASS PIPE OUTLET NODE,Water,1
 Node,93,PIPE ADIABATIC 4 INLET WATER NODE,Water,1
 Node,94,MAIN SERVICE WATER LOOP DEMAND OUTLET NODE,Water,2
 Node,95,CORE_BOTTOM ZN ZONE AIR NODE,Air,0
 Node,96,CORE_MID ZN ZONE AIR NODE,Air,0
 Node,97,CORE_TOP ZN ZONE AIR NODE,Air,0
 Node,98,PERIMETER_BOT_ZN_1 ZN ZONE AIR NODE,Air,0
 Node,99,PERIMETER_BOT_ZN_2 ZN ZONE AIR NODE,Air,0
 Node,100,PERIMETER_BOT_ZN_3 ZN ZONE AIR NODE,Air,0
 Node,101,PERIMETER_BOT_ZN_4 ZN ZONE AIR NODE,Air,0
 Node,102,PERIMETER_MID_ZN_1 ZN ZONE AIR NODE,Air,0
 Node,103,PERIMETER_MID_ZN_2 ZN ZONE AIR NODE,Air,0
 Node,104,PERIMETER_MID_ZN_3 ZN ZONE AIR NODE,Air,0
 Node,105,PERIMETER_MID_ZN_4 ZN ZONE AIR NODE,Air,0
 Node,106,PERIMETER_TOP_ZN_1 ZN ZONE AIR NODE,Air,0
 Node,107,PERIMETER_TOP_ZN_2 ZN ZONE AIR NODE,Air,0
 Node,108,PERIMETER_TOP_ZN_3 ZN ZONE AIR NODE,Air,0
 Node,109,PERIMETER_TOP_ZN_4 ZN ZONE AIR NODE,Air,0
 Node,110,5 ZONE PVAV DEMAND OUTLET NODE,Air,2
 Node,111,5 ZONE PVAV 1 DEMAND OUTLET NODE,Air,2
 Node,112,5 ZONE PVAV 2 DEMAND OUTLET NODE,Air,2
 Node,113,5 ZONE PVAV OUTDOOR AIR NODE,Air,2
 Node,114,5 ZONE PVAV 1 OUTDOOR AIR NODE,Air,2
 Node,115,5 ZONE PVAV 2 OUTDOOR AIR NODE,Air,2
 Node,116,MODEL OUTDOOR AIR NODE,Air,0
 Node,117,PERIMETER_BOT_ZN_1 ZN VAV TERMINAL INLET AIR NODE,Air,1
 Node,118,PERIMETER_BOT_ZN_2 ZN VAV TERMINAL INLET AIR NODE,Air,1
 Node,119,PERIMETER_BOT_ZN_3 ZN VAV TERMINAL INLET AIR NODE,Air,1
 Node,120,PERIMETER_BOT_ZN_4 ZN VAV TERMINAL INLET AIR NODE,Air,1
 Node,121,CORE_BOTTOM ZN VAV TERMINAL INLET AIR NODE,Air,1
 Node,122,PERIMETER_MID_ZN_1 ZN VAV TERMINAL INLET AIR NODE,Air,1
 Node,123,PERIMETER_MID_ZN_2 ZN VAV TERMINAL INLET AIR NODE,Air,1
 Node,124,PERIMETER_MID_ZN_3 ZN VAV TERMINAL INLET AIR NODE,Air,1
 Node,125,PERIMETER_MID_ZN_4 ZN VAV TERMINAL INLET AIR NODE,Air,1
 Node,126,CORE_MID ZN VAV TERMINAL INLET AIR NODE,Air,1
 Node,127,PERIMETER_TOP_ZN_1 ZN VAV TERMINAL INLET AIR NODE,Air,1
 Node,128,PERIMETER_TOP_ZN_2 ZN VAV TERMINAL INLET AIR NODE,Air,1
 Node,129,PERIMETER_TOP_ZN_3 ZN VAV TERMINAL INLET AIR NODE,Air,1
 Node,130,PERIMETER_TOP_ZN_4 ZN VAV TERMINAL INLET AIR NODE,Air,1
 Node,131,CORE_TOP ZN VAV TERMINAL INLET AIR NODE,Air,1
 Node,132,CORE_BOTTOM ZN VAV TERMINAL DAMPER OUTLET,Air,1
 Node,133,CORE_MID ZN VAV TERMINAL DAMPER OUTLET,Air,1
 Node,134,CORE_TOP ZN VAV TERMINAL DAMPER OUTLET,Air,1
 Node,135,PERIMETER_BOT_ZN_1 ZN VAV TERMINAL DAMPER OUTLET,Air,1
 Node,136,PERIMETER_BOT_ZN_2 ZN VAV TERMINAL DAMPER OUTLET,Air,1
 Node,137,PERIMETER_BOT_ZN_3 ZN VAV TERMINAL DAMPER OUTLET,Air,1
 Node,138,PERIMETER_BOT_ZN_4 ZN VAV TERMINAL DAMPER OUTLET,Air,1
 Node,139,PERIMETER_MID_ZN_1 ZN VAV TERMINAL DAMPER OUTLET,Air,1
 Node,140,PERIMETER_MID_ZN_2 ZN VAV TERMINAL DAMPER OUTLET,Air,1
 Node,141,PERIMETER_MID_ZN_3 ZN VAV TERMINAL DAMPER OUTLET,Air,1
 Node,142,PERIMETER_MID_ZN_4 ZN VAV TERMINAL DAMPER OUTLET,Air,1
 Node,143,PERIMETER_TOP_ZN_1 ZN VAV TERMINAL DAMPER OUTLET,Air,1
 Node,144,PERIMETER_TOP_ZN_2 ZN VAV TERMINAL DAMPER OUTLET,Air,1
 Node,145,PERIMETER_TOP_ZN_3 ZN VAV TERMINAL DAMPER OUTLET,Air,1
 Node,146,PERIMETER_TOP_ZN_4 ZN VAV TERMINAL DAMPER OUTLET,Air,1
 Node,147,FIRSTFLOOR_PLENUM ZN ZONE AIR NODE,Air,0
 Node,148,NODE 32,Air,1
 Node,149,MIDFLOOR_PLENUM ZN ZONE AIR NODE,Air,0
 Node,150,NODE 57,Air,1
 Node,151,TOPFLOOR_PLENUM ZN ZONE AIR NODE,Air,0
 Node,152,NODE 82,Air,1
 Node,153,5 ZONE PVAV RELIEF AIR NODE,Air,1
 Node,154,5 ZONE PVAV 1 RELIEF AIR NODE,Air,1
 Node,155,5 ZONE PVAV 2 RELIEF AIR NODE,Air,1
! ===============================================================
! Suspicious nodes have 0 references.  It is normal for some nodes, however.
! Listing nodes with 0 references (culled from previous list):
! <Suspicious Node>,<NodeNumber>,<Node Name>,<Node Fluid Type>,<# Times Node Referenced After Definition>
 Suspicious Node,95,CORE_BOTTOM ZN ZONE AIR NODE,Air,0
 Suspicious Node,96,CORE_MID ZN ZONE AIR NODE,Air,0
 Suspicious Node,97,CORE_TOP ZN ZONE AIR NODE,Air,0
 Suspicious Node,98,PERIMETER_BOT_ZN_1 ZN ZONE AIR NODE,Air,0
 Suspicious Node,99,PERIMETER_BOT_ZN_2 ZN ZONE AIR NODE,Air,0
 Suspicious Node,100,PERIMETER_BOT_ZN_3 ZN ZONE AIR NODE,Air,0
 Suspicious Node,101,PERIMETER_BOT_ZN_4 ZN ZONE AIR NODE,Air,0
 Suspicious Node,102,PERIMETER_MID_ZN_1 ZN ZONE AIR NODE,Air,0
 Suspicious Node,103,PERIMETER_MID_ZN_2 ZN ZONE AIR NODE,Air,0
 Suspicious Node,104,PERIMETER_MID_ZN_3 ZN ZONE AIR NODE,Air,0
 Suspicious Node,105,PERIMETER_MID_ZN_4 ZN ZONE AIR NODE,Air,0
 Suspicious Node,106,PERIMETER_TOP_ZN_1 ZN ZONE AIR NODE,Air,0
 Suspicious Node,107,PERIMETER_TOP_ZN_2 ZN ZONE AIR NODE,Air,0
 Suspicious Node,108,PERIMETER_TOP_ZN_3 ZN ZONE AIR NODE,Air,0
 Suspicious Node,109,PERIMETER_TOP_ZN_4 ZN ZONE AIR NODE,Air,0
 Suspicious Node,116,MODEL OUTDOOR AIR NODE,Air,0
 Suspicious Node,147,FIRSTFLOOR_PLENUM ZN ZONE AIR NODE,Air,0
 Suspicious Node,149,MIDFLOOR_PLENUM ZN ZONE AIR NODE,Air,0
 Suspicious Node,151,TOPFLOOR_PLENUM ZN ZONE AIR NODE,Air,0
! ===============================================================
! <#Branch Lists>,<Number of Branch Lists>
 #Branch Lists,5
! <Branch List>,<Branch List Count>,<Branch List Name>,<Loop Name>,<Loop Type>,<Number of Branches>
! <Branch>,<Branch Count>,<Branch Name>,<Loop Name>,<Loop Type>,<Branch Inlet Node Name>,<Branch Outlet Node Name>
 Branch List,1,5 ZONE PVAV SUPPLY BRANCHES,5 ZONE PVAV,Air,1
   Branch,1,5 ZONE PVAV MAIN BRANCH,5 ZONE PVAV,Air,5 ZONE PVAV SUPPLY INLET NODE,5 ZONE PVAV SUPPLY OUTLET NODE
 Branch List,2,5 ZONE PVAV 1 SUPPLY BRANCHES,5 ZONE PVAV 1,Air,1
   Branch,1,5 ZONE PVAV 1 MAIN BRANCH,5 ZONE PVAV 1,Air,5 ZONE PVAV 1 SUPPLY INLET NODE,5 ZONE PVAV 1 SUPPLY OUTLET NODE
 Branch List,3,5 ZONE PVAV 2 SUPPLY BRANCHES,5 ZONE PVAV 2,Air,1
   Branch,1,5 ZONE PVAV 2 MAIN BRANCH,5 ZONE PVAV 2,Air,5 ZONE PVAV 2 SUPPLY INLET NODE,5 ZONE PVAV 2 SUPPLY OUTLET NODE
 Branch List,4,MAIN SERVICE WATER LOOP SUPPLY BRANCHES,MAIN SERVICE WATER LOOP,Plant Supply,4
   Branch,1,MAIN SERVICE WATER LOOP SUPPLY INLET BRANCH,MAIN SERVICE WATER LOOP,Plant Supply,MAIN SERVICE WATER LOOP SUPPLY INLET NODE,MAIN SERVICE WATER LOOP CIRCULATOR PUMP OUTLET WATER NODE
   Branch,2,MAIN SERVICE WATER LOOP SUPPLY BRANCH 1,MAIN SERVICE WATER LOOP,Plant Supply,100GAL NATURAL GAS WATER HEATER - 100KBTU/HR 0.808 THERM EFF SUPPLY INLET WATER NODE,100GAL NATURAL GAS WATER HEATER - 100KBTU/HR 0.808 THERM EFF SUPPLY OUTLET WATER NODE
   Branch,3,MAIN SERVICE WATER LOOP SUPPLY BRANCH 2,MAIN SERVICE WATER LOOP,Plant Supply,PIPE ADIABATIC 1 INLET WATER NODE,PIPE ADIABATIC 1 OUTLET WATER NODE
   Branch,4,MAIN SERVICE WATER LOOP SUPPLY OUTLET BRANCH,MAIN SERVICE WATER LOOP,Plant Supply,PIPE ADIABATIC 3 INLET WATER NODE,MAIN SERVICE WATER LOOP SUPPLY OUTLET NODE
 Branch List,5,MAIN SERVICE WATER LOOP DEMAND BRANCHES,MAIN SERVICE WATER LOOP,Plant Demand,19
   Branch,1,MAIN SERVICE WATER LOOP DEMAND INLET BRANCH,MAIN SERVICE WATER LOOP,Plant Demand,MAIN SERVICE WATER LOOP DEMAND INLET NODE,MAIN SERVICE WATER LOOP DEMAND INLET PIPE NODE
   Branch,2,MAIN SERVICE WATER LOOP DEMAND BRANCH 1,MAIN SERVICE WATER LOOP,Plant Demand,PIPE ADIABATIC 2 INLET WATER NODE,PIPE ADIABATIC 2 OUTLET WATER NODE
   Branch,3,MAIN SERVICE WATER LOOP DEMAND BRANCH 2,MAIN SERVICE WATER LOOP,Plant Demand,WATER USE CONNECTIONS 1 INLET WATER NODE,WATER USE CONNECTIONS 1 OUTLET WATER NODE
   Branch,4,MAIN SERVICE WATER LOOP DEMAND BRANCH 3,MAIN SERVICE WATER LOOP,Plant Demand,WATER USE CONNECTIONS 2 INLET WATER NODE,WATER USE CONNECTIONS 2 OUTLET WATER NODE
   Branch,5,MAIN SERVICE WATER LOOP DEMAND BRANCH 4,MAIN SERVICE WATER LOOP,Plant Demand,WATER USE CONNECTIONS 3 INLET WATER NODE,WATER USE CONNECTIONS 3 OUTLET WATER NODE
   Branch,6,MAIN SERVICE WATER LOOP DEMAND BRANCH 5,MAIN SERVICE WATER LOOP,Plant Demand,WATER USE CONNECTIONS 4 INLET WATER NODE,WATER USE CONNECTIONS 4 OUTLET WATER NODE
   Branch,7,MAIN SERVICE WATER LOOP DEMAND BRANCH 6,MAIN SERVICE WATER LOOP,Plant Demand,WATER USE CONNECTIONS 5 INLET WATER NODE,WATER USE CONNECTIONS 5 OUTLET WATER NODE
   Branch,8,MAIN SERVICE WATER LOOP DEMAND BRANCH 7,MAIN SERVICE WATER LOOP,Plant Demand,WATER USE CONNECTIONS 6 INLET WATER NODE,WATER USE CONNECTIONS 6 OUTLET WATER NODE
   Branch,9,MAIN SERVICE WATER LOOP DEMAND BRANCH 8,MAIN SERVICE WATER LOOP,Plant Demand,WATER USE CONNECTIONS 7 INLET WATER NODE,WATER USE CONNECTIONS 7 OUTLET WATER NODE
   Branch,10,MAIN SERVICE WATER LOOP DEMAND BRANCH 9,MAIN SERVICE WATER LOOP,Plant Demand,WATER USE CONNECTIONS 8 INLET WATER NODE,WATER USE CONNECTIONS 8 OUTLET WATER NODE
   Branch,11,MAIN SERVICE WATER LOOP DEMAND BRANCH 10,MAIN SERVICE WATER LOOP,Plant Demand,WATER USE CONNECTIONS 9 INLET WATER NODE,WATER USE CONNECTIONS 9 OUTLET WATER NODE
   Branch,12,MAIN SERVICE WATER LOOP DEMAND BRANCH 11,MAIN SERVICE WATER LOOP,Plant Demand,WATER USE CONNECTIONS 10 INLET WATER NODE,WATER USE CONNECTIONS 10 OUTLET WATER NODE
   Branch,13,MAIN SERVICE WATER LOOP DEMAND BRANCH 12,MAIN SERVICE WATER LOOP,Plant Demand,WATER USE CONNECTIONS 11 INLET WATER NODE,WATER USE CONNECTIONS 11 OUTLET WATER NODE
   Branch,14,MAIN SERVICE WATER LOOP DEMAND BRANCH 13,MAIN SERVICE WATER LOOP,Plant Demand,WATER USE CONNECTIONS 12 INLET WATER NODE,WATER USE CONNECTIONS 12 OUTLET WATER NODE
   Branch,15,MAIN SERVICE WATER LOOP DEMAND BRANCH 14,MAIN SERVICE WATER LOOP,Plant Demand,WATER USE CONNECTIONS 13 INLET WATER NODE,WATER USE CONNECTIONS 13 OUTLET WATER NODE
   Branch,16,MAIN SERVICE WATER LOOP DEMAND BRANCH 15,MAIN SERVICE WATER LOOP,Plant Demand,WATER USE CONNECTIONS 14 INLET WATER NODE,WATER USE CONNECTIONS 14 OUTLET WATER NODE
   Branch,17,MAIN SERVICE WATER LOOP DEMAND BRANCH 16,MAIN SERVICE WATER LOOP,Plant Demand,WATER USE CONNECTIONS 15 INLET WATER NODE,WATER USE CONNECTIONS 15 OUTLET WATER NODE
   Branch,18,MAIN SERVICE WATER LOOP DEMAND BYPASS BRANCH,MAIN SERVICE WATER LOOP,Plant Demand,MAIN SERVICE WATER LOOP DEMAND BYPASS PIPE INLET NODE,MAIN SERVICE WATER LOOP DEMAND BYPASS PIPE OUTLET NODE
   Branch,19,MAIN SERVICE WATER LOOP DEMAND OUTLET BRANCH,MAIN SERVICE WATER LOOP,Plant Demand,PIPE ADIABATIC 4 INLET WATER NODE,MAIN SERVICE WATER LOOP DEMAND OUTLET NODE
! ===============================================================
! <#Supply Air Paths>,<Number of Supply Air Paths>
 #Supply Air Paths,3
! <Supply Air Path>,<Supply Air Path Count>,<Supply Air Path Name>,<AirLoopHVAC Name>
! <#Components on Supply Air Path>,<Number of Components>
! <Supply Air Path Component>,<Component Count>,<Component Type>,<Component Name>,<AirLoopHVAC Name>
! <#Outlet Nodes on Supply Air Path Component>,<Number of Nodes>
! <Supply Air Path Component Nodes>,<Node Count>,<Component Type>,<Component Name>,<Inlet Node Name>,<Outlet Node Name>,<AirLoopHVAC Name>
 Supply Air Path,1,5 ZONE PVAV 5 ZONE PVAV DEMAND INLET NODE SUPPLY PATH,5 ZONE PVAV
   #Components on Supply Air Path,1
   Supply Air Path Component,1,AIRLOOPHVAC:ZONESPLITTER,AIR LOOP HVAC ZONE SPLITTER 1,5 ZONE PVAV
     #Outlet Nodes on Supply Air Path Component,5
     Supply Air Path Component Nodes,1,AIRLOOPHVAC:ZONESPLITTER,AIR LOOP HVAC ZONE SPLITTER 1,5 ZONE PVAV DEMAND INLET NODE,PERIMETER_BOT_ZN_1 ZN VAV TERMINAL INLET AIR NODE,5 ZONE PVAV
     Supply Air Path Component Nodes,2,AIRLOOPHVAC:ZONESPLITTER,AIR LOOP HVAC ZONE SPLITTER 1,5 ZONE PVAV DEMAND INLET NODE,PERIMETER_BOT_ZN_2 ZN VAV TERMINAL INLET AIR NODE,5 ZONE PVAV
     Supply Air Path Component Nodes,3,AIRLOOPHVAC:ZONESPLITTER,AIR LOOP HVAC ZONE SPLITTER 1,5 ZONE PVAV DEMAND INLET NODE,PERIMETER_BOT_ZN_3 ZN VAV TERMINAL INLET AIR NODE,5 ZONE PVAV
     Supply Air Path Component Nodes,4,AIRLOOPHVAC:ZONESPLITTER,AIR LOOP HVAC ZONE SPLITTER 1,5 ZONE PVAV DEMAND INLET NODE,PERIMETER_BOT_ZN_4 ZN VAV TERMINAL INLET AIR NODE,5 ZONE PVAV
     Supply Air Path Component Nodes,5,AIRLOOPHVAC:ZONESPLITTER,AIR LOOP HVAC ZONE SPLITTER 1,5 ZONE PVAV DEMAND INLET NODE,CORE_BOTTOM ZN VAV TERMINAL INLET AIR NODE,5 ZONE PVAV
! <#Nodes on Supply Air Path>,<Number of Nodes>
! <Supply Air Path Node>,<Node Type>,<Node Count>,<Node Name>,<AirLoopHVAC Name>
#Nodes on Supply Air Path,6
   Supply Air Path Node,Inlet Node,1,5 ZONE PVAV DEMAND INLET NODE,5 ZONE PVAV
   Supply Air Path Node,Outlet Node,2,PERIMETER_BOT_ZN_1 ZN VAV TERMINAL INLET AIR NODE,5 ZONE PVAV
   Supply Air Path Node,Outlet Node,3,PERIMETER_BOT_ZN_2 ZN VAV TERMINAL INLET AIR NODE,5 ZONE PVAV
   Supply Air Path Node,Outlet Node,4,PERIMETER_BOT_ZN_3 ZN VAV TERMINAL INLET AIR NODE,5 ZONE PVAV
   Supply Air Path Node,Outlet Node,5,PERIMETER_BOT_ZN_4 ZN VAV TERMINAL INLET AIR NODE,5 ZONE PVAV
   Supply Air Path Node,Outlet Node,6,CORE_BOTTOM ZN VAV TERMINAL INLET AIR NODE,5 ZONE PVAV
 Supply Air Path,2,5 ZONE PVAV 1 5 ZONE PVAV 1 DEMAND INLET NODE SUPPLY PATH,5 ZONE PVAV 1
   #Components on Supply Air Path,1
   Supply Air Path Component,1,AIRLOOPHVAC:ZONESPLITTER,AIR LOOP HVAC ZONE SPLITTER 2,5 ZONE PVAV 1
     #Outlet Nodes on Supply Air Path Component,5
     Supply Air Path Component Nodes,1,AIRLOOPHVAC:ZONESPLITTER,AIR LOOP HVAC ZONE SPLITTER 2,5 ZONE PVAV 1 DEMAND INLET NODE,PERIMETER_MID_ZN_1 ZN VAV TERMINAL INLET AIR NODE,5 ZONE PVAV 1
     Supply Air Path Component Nodes,2,AIRLOOPHVAC:ZONESPLITTER,AIR LOOP HVAC ZONE SPLITTER 2,5 ZONE PVAV 1 DEMAND INLET NODE,PERIMETER_MID_ZN_2 ZN VAV TERMINAL INLET AIR NODE,5 ZONE PVAV 1
     Supply Air Path Component Nodes,3,AIRLOOPHVAC:ZONESPLITTER,AIR LOOP HVAC ZONE SPLITTER 2,5 ZONE PVAV 1 DEMAND INLET NODE,PERIMETER_MID_ZN_3 ZN VAV TERMINAL INLET AIR NODE,5 ZONE PVAV 1
     Supply Air Path Component Nodes,4,AIRLOOPHVAC:ZONESPLITTER,AIR LOOP HVAC ZONE SPLITTER 2,5 ZONE PVAV 1 DEMAND INLET NODE,PERIMETER_MID_ZN_4 ZN VAV TERMINAL INLET AIR NODE,5 ZONE PVAV 1
     Supply Air Path Component Nodes,5,AIRLOOPHVAC:ZONESPLITTER,AIR LOOP HVAC ZONE SPLITTER 2,5 ZONE PVAV 1 DEMAND INLET NODE,CORE_MID ZN VAV TERMINAL INLET AIR NODE,5 ZONE PVAV 1
! <#Nodes on Supply Air Path>,<Number of Nodes>
! <Supply Air Path Node>,<Node Type>,<Node Count>,<Node Name>,<AirLoopHVAC Name>
#Nodes on Supply Air Path,6
   Supply Air Path Node,Inlet Node,1,5 ZONE PVAV 1 DEMAND INLET NODE,5 ZONE PVAV 1
   Supply Air Path Node,Outlet Node,2,PERIMETER_MID_ZN_1 ZN VAV TERMINAL INLET AIR NODE,5 ZONE PVAV 1
   Supply Air Path Node,Outlet Node,3,PERIMETER_MID_ZN_2 ZN VAV TERMINAL INLET AIR NODE,5 ZONE PVAV 1
   Supply Air Path Node,Outlet Node,4,PERIMETER_MID_ZN_3 ZN VAV TERMINAL INLET AIR NODE,5 ZONE PVAV 1
   Supply Air Path Node,Outlet Node,5,PERIMETER_MID_ZN_4 ZN VAV TERMINAL INLET AIR NODE,5 ZONE PVAV 1
   Supply Air Path Node,Outlet Node,6,CORE_MID ZN VAV TERMINAL INLET AIR NODE,5 ZONE PVAV 1
 Supply Air Path,3,5 ZONE PVAV 2 5 ZONE PVAV 2 DEMAND INLET NODE SUPPLY PATH,5 ZONE PVAV 2
   #Components on Supply Air Path,1
   Supply Air Path Component,1,AIRLOOPHVAC:ZONESPLITTER,AIR LOOP HVAC ZONE SPLITTER 3,5 ZONE PVAV 2
     #Outlet Nodes on Supply Air Path Component,5
     Supply Air Path Component Nodes,1,AIRLOOPHVAC:ZONESPLITTER,AIR LOOP HVAC ZONE SPLITTER 3,5 ZONE PVAV 2 DEMAND INLET NODE,PERIMETER_TOP_ZN_1 ZN VAV TERMINAL INLET AIR NODE,5 ZONE PVAV 2
     Supply Air Path Component Nodes,2,AIRLOOPHVAC:ZONESPLITTER,AIR LOOP HVAC ZONE SPLITTER 3,5 ZONE PVAV 2 DEMAND INLET NODE,PERIMETER_TOP_ZN_2 ZN VAV TERMINAL INLET AIR NODE,5 ZONE PVAV 2
     Supply Air Path Component Nodes,3,AIRLOOPHVAC:ZONESPLITTER,AIR LOOP HVAC ZONE SPLITTER 3,5 ZONE PVAV 2 DEMAND INLET NODE,PERIMETER_TOP_ZN_3 ZN VAV TERMINAL INLET AIR NODE,5 ZONE PVAV 2
     Supply Air Path Component Nodes,4,AIRLOOPHVAC:ZONESPLITTER,AIR LOOP HVAC ZONE SPLITTER 3,5 ZONE PVAV 2 DEMAND INLET NODE,PERIMETER_TOP_ZN_4 ZN VAV TERMINAL INLET AIR NODE,5 ZONE PVAV 2
     Supply Air Path Component Nodes,5,AIRLOOPHVAC:ZONESPLITTER,AIR LOOP HVAC ZONE SPLITTER 3,5 ZONE PVAV 2 DEMAND INLET NODE,CORE_TOP ZN VAV TERMINAL INLET AIR NODE,5 ZONE PVAV 2
! <#Nodes on Supply Air Path>,<Number of Nodes>
! <Supply Air Path Node>,<Node Type>,<Node Count>,<Node Name>,<AirLoopHVAC Name>
#Nodes on Supply Air Path,6
   Supply Air Path Node,Inlet Node,1,5 ZONE PVAV 2 DEMAND INLET NODE,5 ZONE PVAV 2
   Supply Air Path Node,Outlet Node,2,PERIMETER_TOP_ZN_1 ZN VAV TERMINAL INLET AIR NODE,5 ZONE PVAV 2
   Supply Air Path Node,Outlet Node,3,PERIMETER_TOP_ZN_2 ZN VAV TERMINAL INLET AIR NODE,5 ZONE PVAV 2
   Supply Air Path Node,Outlet Node,4,PERIMETER_TOP_ZN_3 ZN VAV TERMINAL INLET AIR NODE,5 ZONE PVAV 2
   Supply Air Path Node,Outlet Node,5,PERIMETER_TOP_ZN_4 ZN VAV TERMINAL INLET AIR NODE,5 ZONE PVAV 2
   Supply Air Path Node,Outlet Node,6,CORE_TOP ZN VAV TERMINAL INLET AIR NODE,5 ZONE PVAV 2
! ===============================================================
! <#Return Air Paths>,<Number of Return Air Paths>
 #Return Air Paths,3
! <Return Air Path>,<Return Air Path Count>,<Return Air Path Name>,<AirLoopHVAC Name>
! <#Components on Return Air Path>,<Number of Components>
! <Return Air Path Component>,<Component Count>,<Component Type>,<Component Name>,<AirLoopHVAC Name>
! <#Inlet Nodes on Return Air Path Component>,<Number of Nodes>
! <Return Air Path Component Nodes>,<Node Count>,<Component Type>,<Component Name>,<Inlet Node Name>,<Outlet Node Name>,<AirLoopHVAC Name>
 Return Air Path,1,5 ZONE PVAV RETURN PATH,5 ZONE PVAV
   #Components on Return Air Path,2
   Return Air Path Component,1,AIRLOOPHVAC:RETURNPLENUM,AIR LOOP HVAC RETURN PLENUM 1,5 ZONE PVAV
   Return Air Path Component,2,AIRLOOPHVAC:ZONEMIXER,AIR LOOP HVAC ZONE MIXER 1,5 ZONE PVAV
     #Inlet Nodes on Return Air Path Component,1
     Return Air Path Component Nodes,1,AIRLOOPHVAC:ZONEMIXER,AIR LOOP HVAC ZONE MIXER 1,NODE 32,5 ZONE PVAV DEMAND OUTLET NODE,5 ZONE PVAV
! <#Nodes on Return Air Path>,<Number of Nodes>
! <Return Air Path Node>,<Node Type>,<Node Count>,<Node Name>,<AirLoopHVAC Name>
   #Nodes on Return Air Path,7
   Return Air Path Node,Outlet Node,1,5 ZONE PVAV DEMAND OUTLET NODE,5 ZONE PVAV
   Return Air Path Node,Inlet Node,2,NODE 32,5 ZONE PVAV
   Return Air Path Node,Inlet Node,3,PERIMETER_BOT_ZN_1 ZN RETURN AIR NODE,5 ZONE PVAV
   Return Air Path Node,Inlet Node,4,PERIMETER_BOT_ZN_2 ZN RETURN AIR NODE,5 ZONE PVAV
   Return Air Path Node,Inlet Node,5,PERIMETER_BOT_ZN_3 ZN RETURN AIR NODE,5 ZONE PVAV
   Return Air Path Node,Inlet Node,6,PERIMETER_BOT_ZN_4 ZN RETURN AIR NODE,5 ZONE PVAV
   Return Air Path Node,Inlet Node,7,CORE_BOTTOM ZN RETURN AIR NODE,5 ZONE PVAV
 Return Air Path,2,5 ZONE PVAV 1 RETURN PATH,5 ZONE PVAV 1
   #Components on Return Air Path,2
   Return Air Path Component,1,AIRLOOPHVAC:RETURNPLENUM,AIR LOOP HVAC RETURN PLENUM 2,5 ZONE PVAV 1
   Return Air Path Component,2,AIRLOOPHVAC:ZONEMIXER,AIR LOOP HVAC ZONE MIXER 2,5 ZONE PVAV 1
     #Inlet Nodes on Return Air Path Component,1
     Return Air Path Component Nodes,1,AIRLOOPHVAC:ZONEMIXER,AIR LOOP HVAC ZONE MIXER 2,NODE 57,5 ZONE PVAV 1 DEMAND OUTLET NODE,5 ZONE PVAV 1
! <#Nodes on Return Air Path>,<Number of Nodes>
! <Return Air Path Node>,<Node Type>,<Node Count>,<Node Name>,<AirLoopHVAC Name>
   #Nodes on Return Air Path,7
   Return Air Path Node,Outlet Node,1,5 ZONE PVAV 1 DEMAND OUTLET NODE,5 ZONE PVAV 1
   Return Air Path Node,Inlet Node,2,NODE 57,5 ZONE PVAV 1
   Return Air Path Node,Inlet Node,3,PERIMETER_MID_ZN_1 ZN RETURN AIR NODE,5 ZONE PVAV 1
   Return Air Path Node,Inlet Node,4,PERIMETER_MID_ZN_2 ZN RETURN AIR NODE,5 ZONE PVAV 1
   Return Air Path Node,Inlet Node,5,PERIMETER_MID_ZN_3 ZN RETURN AIR NODE,5 ZONE PVAV 1
   Return Air Path Node,Inlet Node,6,PERIMETER_MID_ZN_4 ZN RETURN AIR NODE,5 ZONE PVAV 1
   Return Air Path Node,Inlet Node,7,CORE_MID ZN RETURN AIR NODE,5 ZONE PVAV 1
 Return Air Path,3,5 ZONE PVAV 2 RETURN PATH,5 ZONE PVAV 2
   #Components on Return Air Path,2
   Return Air Path Component,1,AIRLOOPHVAC:RETURNPLENUM,AIR LOOP HVAC RETURN PLENUM 3,5 ZONE PVAV 2
   Return Air Path Component,2,AIRLOOPHVAC:ZONEMIXER,AIR LOOP HVAC ZONE MIXER 3,5 ZONE PVAV 2
     #Inlet Nodes on Return Air Path Component,1
     Return Air Path Component Nodes,1,AIRLOOPHVAC:ZONEMIXER,AIR LOOP HVAC ZONE MIXER 3,NODE 82,5 ZONE PVAV 2 DEMAND OUTLET NODE,5 ZONE PVAV 2
! <#Nodes on Return Air Path>,<Number of Nodes>
! <Return Air Path Node>,<Node Type>,<Node Count>,<Node Name>,<AirLoopHVAC Name>
   #Nodes on Return Air Path,7
   Return Air Path Node,Outlet Node,1,5 ZONE PVAV 2 DEMAND OUTLET NODE,5 ZONE PVAV 2
   Return Air Path Node,Inlet Node,2,NODE 82,5 ZONE PVAV 2
   Return Air Path Node,Inlet Node,3,PERIMETER_TOP_ZN_1 ZN RETURN AIR NODE,5 ZONE PVAV 2
   Return Air Path Node,Inlet Node,4,PERIMETER_TOP_ZN_2 ZN RETURN AIR NODE,5 ZONE PVAV 2
   Return Air Path Node,Inlet Node,5,PERIMETER_TOP_ZN_3 ZN RETURN AIR NODE,5 ZONE PVAV 2
   Return Air Path Node,Inlet Node,6,PERIMETER_TOP_ZN_4 ZN RETURN AIR NODE,5 ZONE PVAV 2
   Return Air Path Node,Inlet Node,7,CORE_TOP ZN RETURN AIR NODE,5 ZONE PVAV 2
! ===============================================================
! #Outdoor Air Nodes,<Number of Outdoor Air Nodes>
 #Outdoor Air Nodes,4
! <Outdoor Air Node>,<NodeNumber>,<Node Name>
 Outdoor Air Node,113,5 ZONE PVAV OUTDOOR AIR NODE
 Outdoor Air Node,114,5 ZONE PVAV 1 OUTDOOR AIR NODE
 Outdoor Air Node,115,5 ZONE PVAV 2 OUTDOOR AIR NODE
 Outdoor Air Node,116,MODEL OUTDOOR AIR NODE
! ===============================================================
! <#Component Sets>,<Number of Component Sets>
 #Component Sets,71
! <Component Set>,<Component Set Count>,<Parent Object Type>,<Parent Object Name>,<Component Type>,<Component Name>,<Inlet Node ID>,<Outlet Node ID>,<Description>
 Component Set,1,BRANCH,5 ZONE PVAV MAIN BRANCH,AIRLOOPHVAC:OUTDOORAIRSYSTEM,5 ZONE PVAV OA SYSTEM,5 ZONE PVAV SUPPLY INLET NODE,5 ZONE PVAV MIXED AIR NODE,Air Nodes
 Component Set,2,BRANCH,5 ZONE PVAV MAIN BRANCH,COILSYSTEM:COOLING:DX,5 ZONE PVAV 2SPD DX CLG COIL 376KBTU/HR 9.8EER COILSYSTEM,5 ZONE PVAV MIXED AIR NODE,5 ZONE PVAV 2SPD DX CLG COIL 376KBTU/HR 9.8EER OUTLET AIR NODE,Air Nodes
 Component Set,3,BRANCH,5 ZONE PVAV MAIN BRANCH,COIL:HEATING:FUEL,5 ZONE PVAV MAIN GAS HTG COIL,5 ZONE PVAV 2SPD DX CLG COIL 376KBTU/HR 9.8EER OUTLET AIR NODE,5 ZONE PVAV MAIN GAS HTG COIL OUTLET AIR NODE,Air Nodes
 Component Set,4,BRANCH,5 ZONE PVAV MAIN BRANCH,FAN:VARIABLEVOLUME,5 ZONE PVAV FAN,5 ZONE PVAV MAIN GAS HTG COIL OUTLET AIR NODE,5 ZONE PVAV SUPPLY OUTLET NODE,Air Nodes
 Component Set,5,BRANCH,5 ZONE PVAV 1 MAIN BRANCH,AIRLOOPHVAC:OUTDOORAIRSYSTEM,5 ZONE PVAV 1 OA SYSTEM,5 ZONE PVAV 1 SUPPLY INLET NODE,5 ZONE PVAV 1 MIXED AIR NODE,Air Nodes
 Component Set,6,BRANCH,5 ZONE PVAV 1 MAIN BRANCH,COILSYSTEM:COOLING:DX,5 ZONE PVAV 1 2SPD DX CLG COIL 310KBTU/HR 9.8EER COILSYSTEM,5 ZONE PVAV 1 MIXED AIR NODE,5 ZONE PVAV 1 2SPD DX CLG COIL 310KBTU/HR 9.8EER OUTLET AIR NODE,Air Nodes
 Component Set,7,BRANCH,5 ZONE PVAV 1 MAIN BRANCH,COIL:HEATING:FUEL,5 ZONE PVAV 1 MAIN GAS HTG COIL,5 ZONE PVAV 1 2SPD DX CLG COIL 310KBTU/HR 9.8EER OUTLET AIR NODE,5 ZONE PVAV 1 MAIN GAS HTG COIL OUTLET AIR NODE,Air Nodes
 Component Set,8,BRANCH,5 ZONE PVAV 1 MAIN BRANCH,FAN:VARIABLEVOLUME,5 ZONE PVAV 1 FAN,5 ZONE PVAV 1 MAIN GAS HTG COIL OUTLET AIR NODE,5 ZONE PVAV 1 SUPPLY OUTLET NODE,Air Nodes
 Component Set,9,BRANCH,5 ZONE PVAV 2 MAIN BRANCH,AIRLOOPHVAC:OUTDOORAIRSYSTEM,5 ZONE PVAV 2 OA SYSTEM,5 ZONE PVAV 2 SUPPLY INLET NODE,5 ZONE PVAV 2 MIXED AIR NODE,Air Nodes
 Component Set,10,BRANCH,5 ZONE PVAV 2 MAIN BRANCH,COILSYSTEM:COOLING:DX,5 ZONE PVAV 2 2SPD DX CLG COIL 327KBTU/HR 9.8EER COILSYSTEM,5 ZONE PVAV 2 MIXED AIR NODE,5 ZONE PVAV 2 2SPD DX CLG COIL 327KBTU/HR 9.8EER OUTLET AIR NODE,Air Nodes
 Component Set,11,BRANCH,5 ZONE PVAV 2 MAIN BRANCH,COIL:HEATING:FUEL,5 ZONE PVAV 2 MAIN GAS HTG COIL,5 ZONE PVAV 2 2SPD DX CLG COIL 327KBTU/HR 9.8EER OUTLET AIR NODE,5 ZONE PVAV 2 MAIN GAS HTG COIL OUTLET AIR NODE,Air Nodes
 Component Set,12,BRANCH,5 ZONE PVAV 2 MAIN BRANCH,FAN:VARIABLEVOLUME,5 ZONE PVAV 2 FAN,5 ZONE PVAV 2 MAIN GAS HTG COIL OUTLET AIR NODE,5 ZONE PVAV 2 SUPPLY OUTLET NODE,Air Nodes
 Component Set,13,BRANCH,MAIN SERVICE WATER LOOP SUPPLY INLET BRANCH,PUMP:CONSTANTSPEED,MAIN SERVICE WATER LOOP CIRCULATOR PUMP,MAIN SERVICE WATER LOOP SUPPLY INLET NODE,MAIN SERVICE WATER LOOP CIRCULATOR PUMP OUTLET WATER NODE,Water Nodes
 Component Set,14,BRANCH,MAIN SERVICE WATER LOOP SUPPLY BRANCH 1,WATERHEATER:MIXED,100GAL NATURAL GAS WATER HEATER - 100KBTU/HR 0.808 THERM EFF,100GAL NATURAL GAS WATER HEATER - 100KBTU/HR 0.808 THERM EFF SUPPLY INLET WATER NODE,100GAL NATURAL GAS WATER HEATER - 100KBTU/HR 0.808 THERM EFF SUPPLY OUTLET WATER NODE,Use Side Water Nodes
 Component Set,15,BRANCH,MAIN SERVICE WATER LOOP SUPPLY BRANCH 2,PIPE:ADIABATIC,PIPE ADIABATIC 1,PIPE ADIABATIC 1 INLET WATER NODE,PIPE ADIABATIC 1 OUTLET WATER NODE,Pipe Nodes
 Component Set,16,BRANCH,MAIN SERVICE WATER LOOP SUPPLY OUTLET BRANCH,PIPE:ADIABATIC,PIPE ADIABATIC 3,PIPE ADIABATIC 3 INLET WATER NODE,MAIN SERVICE WATER LOOP SUPPLY OUTLET NODE,Pipe Nodes
 Component Set,17,BRANCH,MAIN SERVICE WATER LOOP DEMAND INLET BRANCH,PIPE:ADIABATIC,MAIN SERVICE WATER LOOP DEMAND INLET PIPE,MAIN SERVICE WATER LOOP DEMAND INLET NODE,MAIN SERVICE WATER LOOP DEMAND INLET PIPE NODE,Pipe Nodes
 Component Set,18,BRANCH,MAIN SERVICE WATER LOOP DEMAND BRANCH 1,PIPE:ADIABATIC,PIPE ADIABATIC 2,PIPE ADIABATIC 2 INLET WATER NODE,PIPE ADIABATIC 2 OUTLET WATER NODE,Pipe Nodes
 Component Set,19,BRANCH,MAIN SERVICE WATER LOOP DEMAND BRANCH 2,WATERUSE:CONNECTIONS,WATER USE CONNECTIONS 1,WATER USE CONNECTIONS 1 INLET WATER NODE,WATER USE CONNECTIONS 1 OUTLET WATER NODE,DHW Nodes
 Component Set,20,BRANCH,MAIN SERVICE WATER LOOP DEMAND BRANCH 3,WATERUSE:CONNECTIONS,WATER USE CONNECTIONS 2,WATER USE CONNECTIONS 2 INLET WATER NODE,WATER USE CONNECTIONS 2 OUTLET WATER NODE,DHW Nodes
 Component Set,21,BRANCH,MAIN SERVICE WATER LOOP DEMAND BRANCH 4,WATERUSE:CONNECTIONS,WATER USE CONNECTIONS 3,WATER USE CONNECTIONS 3 INLET WATER NODE,WATER USE CONNECTIONS 3 OUTLET WATER NODE,DHW Nodes
 Component Set,22,BRANCH,MAIN SERVICE WATER LOOP DEMAND BRANCH 5,WATERUSE:CONNECTIONS,WATER USE CONNECTIONS 4,WATER USE CONNECTIONS 4 INLET WATER NODE,WATER USE CONNECTIONS 4 OUTLET WATER NODE,DHW Nodes
 Component Set,23,BRANCH,MAIN SERVICE WATER LOOP DEMAND BRANCH 6,WATERUSE:CONNECTIONS,WATER USE CONNECTIONS 5,WATER USE CONNECTIONS 5 INLET WATER NODE,WATER USE CONNECTIONS 5 OUTLET WATER NODE,DHW Nodes
 Component Set,24,BRANCH,MAIN SERVICE WATER LOOP DEMAND BRANCH 7,WATERUSE:CONNECTIONS,WATER USE CONNECTIONS 6,WATER USE CONNECTIONS 6 INLET WATER NODE,WATER USE CONNECTIONS 6 OUTLET WATER NODE,DHW Nodes
 Component Set,25,BRANCH,MAIN SERVICE WATER LOOP DEMAND BRANCH 8,WATERUSE:CONNECTIONS,WATER USE CONNECTIONS 7,WATER USE CONNECTIONS 7 INLET WATER NODE,WATER USE CONNECTIONS 7 OUTLET WATER NODE,DHW Nodes
 Component Set,26,BRANCH,MAIN SERVICE WATER LOOP DEMAND BRANCH 9,WATERUSE:CONNECTIONS,WATER USE CONNECTIONS 8,WATER USE CONNECTIONS 8 INLET WATER NODE,WATER USE CONNECTIONS 8 OUTLET WATER NODE,DHW Nodes
 Component Set,27,BRANCH,MAIN SERVICE WATER LOOP DEMAND BRANCH 10,WATERUSE:CONNECTIONS,WATER USE CONNECTIONS 9,WATER USE CONNECTIONS 9 INLET WATER NODE,WATER USE CONNECTIONS 9 OUTLET WATER NODE,DHW Nodes
 Component Set,28,BRANCH,MAIN SERVICE WATER LOOP DEMAND BRANCH 11,WATERUSE:CONNECTIONS,WATER USE CONNECTIONS 10,WATER USE CONNECTIONS 10 INLET WATER NODE,WATER USE CONNECTIONS 10 OUTLET WATER NODE,DHW Nodes
 Component Set,29,BRANCH,MAIN SERVICE WATER LOOP DEMAND BRANCH 12,WATERUSE:CONNECTIONS,WATER USE CONNECTIONS 11,WATER USE CONNECTIONS 11 INLET WATER NODE,WATER USE CONNECTIONS 11 OUTLET WATER NODE,DHW Nodes
 Component Set,30,BRANCH,MAIN SERVICE WATER LOOP DEMAND BRANCH 13,WATERUSE:CONNECTIONS,WATER USE CONNECTIONS 12,WATER USE CONNECTIONS 12 INLET WATER NODE,WATER USE CONNECTIONS 12 OUTLET WATER NODE,DHW Nodes
 Component Set,31,BRANCH,MAIN SERVICE WATER LOOP DEMAND BRANCH 14,WATERUSE:CONNECTIONS,WATER USE CONNECTIONS 13,WATER USE CONNECTIONS 13 INLET WATER NODE,WATER USE CONNECTIONS 13 OUTLET WATER NODE,DHW Nodes
 Component Set,32,BRANCH,MAIN SERVICE WATER LOOP DEMAND BRANCH 15,WATERUSE:CONNECTIONS,WATER USE CONNECTIONS 14,WATER USE CONNECTIONS 14 INLET WATER NODE,WATER USE CONNECTIONS 14 OUTLET WATER NODE,DHW Nodes
 Component Set,33,BRANCH,MAIN SERVICE WATER LOOP DEMAND BRANCH 16,WATERUSE:CONNECTIONS,WATER USE CONNECTIONS 15,WATER USE CONNECTIONS 15 INLET WATER NODE,WATER USE CONNECTIONS 15 OUTLET WATER NODE,DHW Nodes
 Component Set,34,BRANCH,MAIN SERVICE WATER LOOP DEMAND BYPASS BRANCH,PIPE:ADIABATIC,MAIN SERVICE WATER LOOP DEMAND BYPASS PIPE,MAIN SERVICE WATER LOOP DEMAND BYPASS PIPE INLET NODE,MAIN SERVICE WATER LOOP DEMAND BYPASS PIPE OUTLET NODE,Pipe Nodes
 Component Set,35,BRANCH,MAIN SERVICE WATER LOOP DEMAND OUTLET BRANCH,PIPE:ADIABATIC,PIPE ADIABATIC 4,PIPE ADIABATIC 4 INLET WATER NODE,MAIN SERVICE WATER LOOP DEMAND OUTLET NODE,Pipe Nodes
 Component Set,36,ZONEHVAC:AIRDISTRIBUTIONUNIT,ADU CORE_BOTTOM ZN VAV TERMINAL,AIRTERMINAL:SINGLEDUCT:VAV:REHEAT,CORE_BOTTOM ZN VAV TERMINAL,CORE_BOTTOM ZN VAV TERMINAL INLET AIR NODE,CORE_BOTTOM ZN VAV TERMINAL OUTLET AIR NODE,Air Nodes
 Component Set,37,ZONEHVAC:AIRDISTRIBUTIONUNIT,ADU CORE_MID ZN VAV TERMINAL,AIRTERMINAL:SINGLEDUCT:VAV:REHEAT,CORE_MID ZN VAV TERMINAL,CORE_MID ZN VAV TERMINAL INLET AIR NODE,CORE_MID ZN VAV TERMINAL OUTLET AIR NODE,Air Nodes
 Component Set,38,ZONEHVAC:AIRDISTRIBUTIONUNIT,ADU CORE_TOP ZN VAV TERMINAL,AIRTERMINAL:SINGLEDUCT:VAV:REHEAT,CORE_TOP ZN VAV TERMINAL,CORE_TOP ZN VAV TERMINAL INLET AIR NODE,CORE_TOP ZN VAV TERMINAL OUTLET AIR NODE,Air Nodes
 Component Set,39,ZONEHVAC:AIRDISTRIBUTIONUNIT,ADU PERIMETER_BOT_ZN_1 ZN VAV TERMINAL,AIRTERMINAL:SINGLEDUCT:VAV:REHEAT,PERIMETER_BOT_ZN_1 ZN VAV TERMINAL,PERIMETER_BOT_ZN_1 ZN VAV TERMINAL INLET AIR NODE,PERIMETER_BOT_ZN_1 ZN VAV TERMINAL OUTLET AIR NODE,Air Nodes
 Component Set,40,ZONEHVAC:AIRDISTRIBUTIONUNIT,ADU PERIMETER_BOT_ZN_2 ZN VAV TERMINAL,AIRTERMINAL:SINGLEDUCT:VAV:REHEAT,PERIMETER_BOT_ZN_2 ZN VAV TERMINAL,PERIMETER_BOT_ZN_2 ZN VAV TERMINAL INLET AIR NODE,PERIMETER_BOT_ZN_2 ZN VAV TERMINAL OUTLET AIR NODE,Air Nodes
 Component Set,41,ZONEHVAC:AIRDISTRIBUTIONUNIT,ADU PERIMETER_BOT_ZN_3 ZN VAV TERMINAL,AIRTERMINAL:SINGLEDUCT:VAV:REHEAT,PERIMETER_BOT_ZN_3 ZN VAV TERMINAL,PERIMETER_BOT_ZN_3 ZN VAV TERMINAL INLET AIR NODE,PERIMETER_BOT_ZN_3 ZN VAV TERMINAL OUTLET AIR NODE,Air Nodes
 Component Set,42,ZONEHVAC:AIRDISTRIBUTIONUNIT,ADU PERIMETER_BOT_ZN_4 ZN VAV TERMINAL,AIRTERMINAL:SINGLEDUCT:VAV:REHEAT,PERIMETER_BOT_ZN_4 ZN VAV TERMINAL,PERIMETER_BOT_ZN_4 ZN VAV TERMINAL INLET AIR NODE,PERIMETER_BOT_ZN_4 ZN VAV TERMINAL OUTLET AIR NODE,Air Nodes
 Component Set,43,ZONEHVAC:AIRDISTRIBUTIONUNIT,ADU PERIMETER_MID_ZN_1 ZN VAV TERMINAL,AIRTERMINAL:SINGLEDUCT:VAV:REHEAT,PERIMETER_MID_ZN_1 ZN VAV TERMINAL,PERIMETER_MID_ZN_1 ZN VAV TERMINAL INLET AIR NODE,PERIMETER_MID_ZN_1 ZN VAV TERMINAL OUTLET AIR NODE,Air Nodes
 Component Set,44,ZONEHVAC:AIRDISTRIBUTIONUNIT,ADU PERIMETER_MID_ZN_2 ZN VAV TERMINAL,AIRTERMINAL:SINGLEDUCT:VAV:REHEAT,PERIMETER_MID_ZN_2 ZN VAV TERMINAL,PERIMETER_MID_ZN_2 ZN VAV TERMINAL INLET AIR NODE,PERIMETER_MID_ZN_2 ZN VAV TERMINAL OUTLET AIR NODE,Air Nodes
 Component Set,45,ZONEHVAC:AIRDISTRIBUTIONUNIT,ADU PERIMETER_MID_ZN_3 ZN VAV TERMINAL,AIRTERMINAL:SINGLEDUCT:VAV:REHEAT,PERIMETER_MID_ZN_3 ZN VAV TERMINAL,PERIMETER_MID_ZN_3 ZN VAV TERMINAL INLET AIR NODE,PERIMETER_MID_ZN_3 ZN VAV TERMINAL OUTLET AIR NODE,Air Nodes
 Component Set,46,ZONEHVAC:AIRDISTRIBUTIONUNIT,ADU PERIMETER_MID_ZN_4 ZN VAV TERMINAL,AIRTERMINAL:SINGLEDUCT:VAV:REHEAT,PERIMETER_MID_ZN_4 ZN VAV TERMINAL,PERIMETER_MID_ZN_4 ZN VAV TERMINAL INLET AIR NODE,PERIMETER_MID_ZN_4 ZN VAV TERMINAL OUTLET AIR NODE,Air Nodes
 Component Set,47,ZONEHVAC:AIRDISTRIBUTIONUNIT,ADU PERIMETER_TOP_ZN_1 ZN VAV TERMINAL,AIRTERMINAL:SINGLEDUCT:VAV:REHEAT,PERIMETER_TOP_ZN_1 ZN VAV TERMINAL,PERIMETER_TOP_ZN_1 ZN VAV TERMINAL INLET AIR NODE,PERIMETER_TOP_ZN_1 ZN VAV TERMINAL OUTLET AIR NODE,Air Nodes
 Component Set,48,ZONEHVAC:AIRDISTRIBUTIONUNIT,ADU PERIMETER_TOP_ZN_2 ZN VAV TERMINAL,AIRTERMINAL:SINGLEDUCT:VAV:REHEAT,PERIMETER_TOP_ZN_2 ZN VAV TERMINAL,PERIMETER_TOP_ZN_2 ZN VAV TERMINAL INLET AIR NODE,PERIMETER_TOP_ZN_2 ZN VAV TERMINAL OUTLET AIR NODE,Air Nodes
 Component Set,49,ZONEHVAC:AIRDISTRIBUTIONUNIT,ADU PERIMETER_TOP_ZN_3 ZN VAV TERMINAL,AIRTERMINAL:SINGLEDUCT:VAV:REHEAT,PERIMETER_TOP_ZN_3 ZN VAV TERMINAL,PERIMETER_TOP_ZN_3 ZN VAV TERMINAL INLET AIR NODE,PERIMETER_TOP_ZN_3 ZN VAV TERMINAL OUTLET AIR NODE,Air Nodes
 Component Set,50,ZONEHVAC:AIRDISTRIBUTIONUNIT,ADU PERIMETER_TOP_ZN_4 ZN VAV TERMINAL,AIRTERMINAL:SINGLEDUCT:VAV:REHEAT,PERIMETER_TOP_ZN_4 ZN VAV TERMINAL,PERIMETER_TOP_ZN_4 ZN VAV TERMINAL INLET AIR NODE,PERIMETER_TOP_ZN_4 ZN VAV TERMINAL OUTLET AIR NODE,Air Nodes
 Component Set,51,AIRTERMINAL:SINGLEDUCT:VAV:REHEAT,CORE_BOTTOM ZN VAV TERMINAL,COIL:HEATING:ELECTRIC,CORE_BOTTOM ZN ELECTRIC REHEAT COIL,CORE_BOTTOM ZN VAV TERMINAL DAMPER OUTLET,CORE_BOTTOM ZN VAV TERMINAL OUTLET AIR NODE,Air Nodes
 Component Set,52,AIRTERMINAL:SINGLEDUCT:VAV:REHEAT,CORE_MID ZN VAV TERMINAL,COIL:HEATING:ELECTRIC,CORE_MID ZN ELECTRIC REHEAT COIL,CORE_MID ZN VAV TERMINAL DAMPER OUTLET,CORE_MID ZN VAV TERMINAL OUTLET AIR NODE,Air Nodes
 Component Set,53,AIRTERMINAL:SINGLEDUCT:VAV:REHEAT,CORE_TOP ZN VAV TERMINAL,COIL:HEATING:ELECTRIC,CORE_TOP ZN ELECTRIC REHEAT COIL,CORE_TOP ZN VAV TERMINAL DAMPER OUTLET,CORE_TOP ZN VAV TERMINAL OUTLET AIR NODE,Air Nodes
 Component Set,54,AIRTERMINAL:SINGLEDUCT:VAV:REHEAT,PERIMETER_BOT_ZN_1 ZN VAV TERMINAL,COIL:HEATING:ELECTRIC,PERIMETER_BOT_ZN_1 ZN ELECTRIC REHEAT COIL,PERIMETER_BOT_ZN_1 ZN VAV TERMINAL DAMPER OUTLET,PERIMETER_BOT_ZN_1 ZN VAV TERMINAL OUTLET AIR NODE,Air Nodes
 Component Set,55,AIRTERMINAL:SINGLEDUCT:VAV:REHEAT,PERIMETER_BOT_ZN_2 ZN VAV TERMINAL,COIL:HEATING:ELECTRIC,PERIMETER_BOT_ZN_2 ZN ELECTRIC REHEAT COIL,PERIMETER_BOT_ZN_2 ZN VAV TERMINAL DAMPER OUTLET,PERIMETER_BOT_ZN_2 ZN VAV TERMINAL OUTLET AIR NODE,Air Nodes
 Component Set,56,AIRTERMINAL:SINGLEDUCT:VAV:REHEAT,PERIMETER_BOT_ZN_3 ZN VAV TERMINAL,COIL:HEATING:ELECTRIC,PERIMETER_BOT_ZN_3 ZN ELECTRIC REHEAT COIL,PERIMETER_BOT_ZN_3 ZN VAV TERMINAL DAMPER OUTLET,PERIMETER_BOT_ZN_3 ZN VAV TERMINAL OUTLET AIR NODE,Air Nodes
 Component Set,57,AIRTERMINAL:SINGLEDUCT:VAV:REHEAT,PERIMETER_BOT_ZN_4 ZN VAV TERMINAL,COIL:HEATING:ELECTRIC,PERIMETER_BOT_ZN_4 ZN ELECTRIC REHEAT COIL,PERIMETER_BOT_ZN_4 ZN VAV TERMINAL DAMPER OUTLET,PERIMETER_BOT_ZN_4 ZN VAV TERMINAL OUTLET AIR NODE,Air Nodes
 Component Set,58,AIRTERMINAL:SINGLEDUCT:VAV:REHEAT,PERIMETER_MID_ZN_1 ZN VAV TERMINAL,COIL:HEATING:ELECTRIC,PERIMETER_MID_ZN_1 ZN ELECTRIC REHEAT COIL,PERIMETER_MID_ZN_1 ZN VAV TERMINAL DAMPER OUTLET,PERIMETER_MID_ZN_1 ZN VAV TERMINAL OUTLET AIR NODE,Air Nodes
 Component Set,59,AIRTERMINAL:SINGLEDUCT:VAV:REHEAT,PERIMETER_MID_ZN_2 ZN VAV TERMINAL,COIL:HEATING:ELECTRIC,PERIMETER_MID_ZN_2 ZN ELECTRIC REHEAT COIL,PERIMETER_MID_ZN_2 ZN VAV TERMINAL DAMPER OUTLET,PERIMETER_MID_ZN_2 ZN VAV TERMINAL OUTLET AIR NODE,Air Nodes
 Component Set,60,AIRTERMINAL:SINGLEDUCT:VAV:REHEAT,PERIMETER_MID_ZN_3 ZN VAV TERMINAL,COIL:HEATING:ELECTRIC,PERIMETER_MID_ZN_3 ZN ELECTRIC REHEAT COIL,PERIMETER_MID_ZN_3 ZN VAV TERMINAL DAMPER OUTLET,PERIMETER_MID_ZN_3 ZN VAV TERMINAL OUTLET AIR NODE,Air Nodes
 Component Set,61,AIRTERMINAL:SINGLEDUCT:VAV:REHEAT,PERIMETER_MID_ZN_4 ZN VAV TERMINAL,COIL:HEATING:ELECTRIC,PERIMETER_MID_ZN_4 ZN ELECTRIC REHEAT COIL,PERIMETER_MID_ZN_4 ZN VAV TERMINAL DAMPER OUTLET,PERIMETER_MID_ZN_4 ZN VAV TERMINAL OUTLET AIR NODE,Air Nodes
 Component Set,62,AIRTERMINAL:SINGLEDUCT:VAV:REHEAT,PERIMETER_TOP_ZN_1 ZN VAV TERMINAL,COIL:HEATING:ELECTRIC,PERIMETER_TOP_ZN_1 ZN ELECTRIC REHEAT COIL,PERIMETER_TOP_ZN_1 ZN VAV TERMINAL DAMPER OUTLET,PERIMETER_TOP_ZN_1 ZN VAV TERMINAL OUTLET AIR NODE,Air Nodes
 Component Set,63,AIRTERMINAL:SINGLEDUCT:VAV:REHEAT,PERIMETER_TOP_ZN_2 ZN VAV TERMINAL,COIL:HEATING:ELECTRIC,PERIMETER_TOP_ZN_2 ZN ELECTRIC REHEAT COIL,PERIMETER_TOP_ZN_2 ZN VAV TERMINAL DAMPER OUTLET,PERIMETER_TOP_ZN_2 ZN VAV TERMINAL OUTLET AIR NODE,Air Nodes
 Component Set,64,AIRTERMINAL:SINGLEDUCT:VAV:REHEAT,PERIMETER_TOP_ZN_3 ZN VAV TERMINAL,COIL:HEATING:ELECTRIC,PERIMETER_TOP_ZN_3 ZN ELECTRIC REHEAT COIL,PERIMETER_TOP_ZN_3 ZN VAV TERMINAL DAMPER OUTLET,PERIMETER_TOP_ZN_3 ZN VAV TERMINAL OUTLET AIR NODE,Air Nodes
 Component Set,65,AIRTERMINAL:SINGLEDUCT:VAV:REHEAT,PERIMETER_TOP_ZN_4 ZN VAV TERMINAL,COIL:HEATING:ELECTRIC,PERIMETER_TOP_ZN_4 ZN ELECTRIC REHEAT COIL,PERIMETER_TOP_ZN_4 ZN VAV TERMINAL DAMPER OUTLET,PERIMETER_TOP_ZN_4 ZN VAV TERMINAL OUTLET AIR NODE,Air Nodes
 Component Set,66,AIRLOOPHVAC:OUTDOORAIRSYSTEM,5 ZONE PVAV OA SYSTEM,OUTDOORAIR:MIXER,5 ZONE PVAV OA SYSTEM OUTDOOR AIR MIXER,5 ZONE PVAV OUTDOOR AIR NODE,5 ZONE PVAV MIXED AIR NODE,Air Nodes
 Component Set,67,AIRLOOPHVAC:OUTDOORAIRSYSTEM,5 ZONE PVAV 1 OA SYSTEM,OUTDOORAIR:MIXER,5 ZONE PVAV 1 OA SYSTEM OUTDOOR AIR MIXER,5 ZONE PVAV 1 OUTDOOR AIR NODE,5 ZONE PVAV 1 MIXED AIR NODE,Air Nodes
 Component Set,68,AIRLOOPHVAC:OUTDOORAIRSYSTEM,5 ZONE PVAV 2 OA SYSTEM,OUTDOORAIR:MIXER,5 ZONE PVAV 2 OA SYSTEM OUTDOOR AIR MIXER,5 ZONE PVAV 2 OUTDOOR AIR NODE,5 ZONE PVAV 2 MIXED AIR NODE,Air Nodes
 Component Set,69,COILSYSTEM:COOLING:DX,5 ZONE PVAV 2SPD DX CLG COIL 376KBTU/HR 9.8EER COILSYSTEM,COIL:COOLING:DX:TWOSPEED,5 ZONE PVAV 2SPD DX CLG COIL 376KBTU/HR 9.8EER,5 ZONE PVAV MIXED AIR NODE,5 ZONE PVAV 2SPD DX CLG COIL 376KBTU/HR 9.8EER OUTLET AIR NODE,Air Nodes
 Component Set,70,COILSYSTEM:COOLING:DX,5 ZONE PVAV 1 2SPD DX CLG COIL 310KBTU/HR 9.8EER COILSYSTEM,COIL:COOLING:DX:TWOSPEED,5 ZONE PVAV 1 2SPD DX CLG COIL 310KBTU/HR 9.8EER,5 ZONE PVAV 1 MIXED AIR NODE,5 ZONE PVAV 1 2SPD DX CLG COIL 310KBTU/HR 9.8EER OUTLET AIR NODE,Air Nodes
 Component Set,71,COILSYSTEM:COOLING:DX,5 ZONE PVAV 2 2SPD DX CLG COIL 327KBTU/HR 9.8EER COILSYSTEM,COIL:COOLING:DX:TWOSPEED,5 ZONE PVAV 2 2SPD DX CLG COIL 327KBTU/HR 9.8EER,5 ZONE PVAV 2 MIXED AIR NODE,5 ZONE PVAV 2 2SPD DX CLG COIL 327KBTU/HR 9.8EER OUTLET AIR NODE,Air Nodes
! ===============================================================
! <# Plant Loops>,<Number of Plant Loops>
 #Plant Loops,1
! <Plant Loop>,<Plant Loop Name>,<Loop Type>,<Inlet Node Name>,<Outlet Node Name>,<Branch List>,<Connector List>
! <Plant Loop Connector>,<Connector Type>,<Connector Name>,<Loop Name>,<Loop Type>,<Number of Inlets/Outlets>
! <Plant Loop Connector Branches>,<Connector Node Count>,<Connector Type>,<Connector Name>,<Inlet Branch>,<Outlet Branch>,<Loop Name>,<Loop Type>
! <Plant Loop Connector Nodes>,<Connector Node Count>,<Connector Type>,<Connector Name>,<Inlet Node>,<Outlet Node>,<Loop Name>,<Loop Type>
! <Plant Loop Supply Connection>,<Plant Loop Name>,<Supply Side Outlet Node Name>,<Demand Side Inlet Node Name>
! <Plant Loop Return Connection>,<Plant Loop Name>,<Demand Side Outlet Node Name>,<Supply Side Inlet Node Name>
 Plant Loop,MAIN SERVICE WATER LOOP,Demand,MAIN SERVICE WATER LOOP DEMAND INLET NODE,MAIN SERVICE WATER LOOP DEMAND OUTLET NODE,MAIN SERVICE WATER LOOP DEMAND BRANCHES,MAIN SERVICE WATER LOOP DEMAND CONNECTOR LIST
   Plant Loop Connector,Splitter,MAIN SERVICE WATER LOOP DEMAND SPLITTER,MAIN SERVICE WATER LOOP,Demand,17
     Plant Loop Connector Branches,1,Splitter,MAIN SERVICE WATER LOOP DEMAND SPLITTER,MAIN SERVICE WATER LOOP DEMAND INLET BRANCH,MAIN SERVICE WATER LOOP DEMAND BRANCH 1,MAIN SERVICE WATER LOOP,Demand
     Plant Loop Connector Nodes,   1,Splitter,MAIN SERVICE WATER LOOP DEMAND SPLITTER,MAIN SERVICE WATER LOOP DEMAND INLET PIPE NODE,PIPE ADIABATIC 2 INLET WATER NODE,MAIN SERVICE WATER LOOP,Demand
     Plant Loop Connector Branches,2,Splitter,MAIN SERVICE WATER LOOP DEMAND SPLITTER,MAIN SERVICE WATER LOOP DEMAND INLET BRANCH,MAIN SERVICE WATER LOOP DEMAND BRANCH 2,MAIN SERVICE WATER LOOP,Demand
     Plant Loop Connector Nodes,   2,Splitter,MAIN SERVICE WATER LOOP DEMAND SPLITTER,MAIN SERVICE WATER LOOP DEMAND INLET PIPE NODE,WATER USE CONNECTIONS 1 INLET WATER NODE,MAIN SERVICE WATER LOOP,Demand
     Plant Loop Connector Branches,3,Splitter,MAIN SERVICE WATER LOOP DEMAND SPLITTER,MAIN SERVICE WATER LOOP DEMAND INLET BRANCH,MAIN SERVICE WATER LOOP DEMAND BRANCH 3,MAIN SERVICE WATER LOOP,Demand
     Plant Loop Connector Nodes,   3,Splitter,MAIN SERVICE WATER LOOP DEMAND SPLITTER,MAIN SERVICE WATER LOOP DEMAND INLET PIPE NODE,WATER USE CONNECTIONS 2 INLET WATER NODE,MAIN SERVICE WATER LOOP,Demand
     Plant Loop Connector Branches,4,Splitter,MAIN SERVICE WATER LOOP DEMAND SPLITTER,MAIN SERVICE WATER LOOP DEMAND INLET BRANCH,MAIN SERVICE WATER LOOP DEMAND BRANCH 4,MAIN SERVICE WATER LOOP,Demand
     Plant Loop Connector Nodes,   4,Splitter,MAIN SERVICE WATER LOOP DEMAND SPLITTER,MAIN SERVICE WATER LOOP DEMAND INLET PIPE NODE,WATER USE CONNECTIONS 3 INLET WATER NODE,MAIN SERVICE WATER LOOP,Demand
     Plant Loop Connector Branches,5,Splitter,MAIN SERVICE WATER LOOP DEMAND SPLITTER,MAIN SERVICE WATER LOOP DEMAND INLET BRANCH,MAIN SERVICE WATER LOOP DEMAND BRANCH 5,MAIN SERVICE WATER LOOP,Demand
     Plant Loop Connector Nodes,   5,Splitter,MAIN SERVICE WATER LOOP DEMAND SPLITTER,MAIN SERVICE WATER LOOP DEMAND INLET PIPE NODE,WATER USE CONNECTIONS 4 INLET WATER NODE,MAIN SERVICE WATER LOOP,Demand
     Plant Loop Connector Branches,6,Splitter,MAIN SERVICE WATER LOOP DEMAND SPLITTER,MAIN SERVICE WATER LOOP DEMAND INLET BRANCH,MAIN SERVICE WATER LOOP DEMAND BRANCH 6,MAIN SERVICE WATER LOOP,Demand
     Plant Loop Connector Nodes,   6,Splitter,MAIN SERVICE WATER LOOP DEMAND SPLITTER,MAIN SERVICE WATER LOOP DEMAND INLET PIPE NODE,WATER USE CONNECTIONS 5 INLET WATER NODE,MAIN SERVICE WATER LOOP,Demand
     Plant Loop Connector Branches,7,Splitter,MAIN SERVICE WATER LOOP DEMAND SPLITTER,MAIN SERVICE WATER LOOP DEMAND INLET BRANCH,MAIN SERVICE WATER LOOP DEMAND BRANCH 7,MAIN SERVICE WATER LOOP,Demand
     Plant Loop Connector Nodes,   7,Splitter,MAIN SERVICE WATER LOOP DEMAND SPLITTER,MAIN SERVICE WATER LOOP DEMAND INLET PIPE NODE,WATER USE CONNECTIONS 6 INLET WATER NODE,MAIN SERVICE WATER LOOP,Demand
     Plant Loop Connector Branches,8,Splitter,MAIN SERVICE WATER LOOP DEMAND SPLITTER,MAIN SERVICE WATER LOOP DEMAND INLET BRANCH,MAIN SERVICE WATER LOOP DEMAND BRANCH 8,MAIN SERVICE WATER LOOP,Demand
     Plant Loop Connector Nodes,   8,Splitter,MAIN SERVICE WATER LOOP DEMAND SPLITTER,MAIN SERVICE WATER LOOP DEMAND INLET PIPE NODE,WATER USE CONNECTIONS 7 INLET WATER NODE,MAIN SERVICE WATER LOOP,Demand
     Plant Loop Connector Branches,9,Splitter,MAIN SERVICE WATER LOOP DEMAND SPLITTER,MAIN SERVICE WATER LOOP DEMAND INLET BRANCH,MAIN SERVICE WATER LOOP DEMAND BRANCH 9,MAIN SERVICE WATER LOOP,Demand
     Plant Loop Connector Nodes,   9,Splitter,MAIN SERVICE WATER LOOP DEMAND SPLITTER,MAIN SERVICE WATER LOOP DEMAND INLET PIPE NODE,WATER USE CONNECTIONS 8 INLET WATER NODE,MAIN SERVICE WATER LOOP,Demand
     Plant Loop Connector Branches,10,Splitter,MAIN SERVICE WATER LOOP DEMAND SPLITTER,MAIN SERVICE WATER LOOP DEMAND INLET BRANCH,MAIN SERVICE WATER LOOP DEMAND BRANCH 10,MAIN SERVICE WATER LOOP,Demand
     Plant Loop Connector Nodes,   10,Splitter,MAIN SERVICE WATER LOOP DEMAND SPLITTER,MAIN SERVICE WATER LOOP DEMAND INLET PIPE NODE,WATER USE CONNECTIONS 9 INLET WATER NODE,MAIN SERVICE WATER LOOP,Demand
     Plant Loop Connector Branches,11,Splitter,MAIN SERVICE WATER LOOP DEMAND SPLITTER,MAIN SERVICE WATER LOOP DEMAND INLET BRANCH,MAIN SERVICE WATER LOOP DEMAND BRANCH 11,MAIN SERVICE WATER LOOP,Demand
     Plant Loop Connector Nodes,   11,Splitter,MAIN SERVICE WATER LOOP DEMAND SPLITTER,MAIN SERVICE WATER LOOP DEMAND INLET PIPE NODE,WATER USE CONNECTIONS 10 INLET WATER NODE,MAIN SERVICE WATER LOOP,Demand
     Plant Loop Connector Branches,12,Splitter,MAIN SERVICE WATER LOOP DEMAND SPLITTER,MAIN SERVICE WATER LOOP DEMAND INLET BRANCH,MAIN SERVICE WATER LOOP DEMAND BRANCH 12,MAIN SERVICE WATER LOOP,Demand
     Plant Loop Connector Nodes,   12,Splitter,MAIN SERVICE WATER LOOP DEMAND SPLITTER,MAIN SERVICE WATER LOOP DEMAND INLET PIPE NODE,WATER USE CONNECTIONS 11 INLET WATER NODE,MAIN SERVICE WATER LOOP,Demand
     Plant Loop Connector Branches,13,Splitter,MAIN SERVICE WATER LOOP DEMAND SPLITTER,MAIN SERVICE WATER LOOP DEMAND INLET BRANCH,MAIN SERVICE WATER LOOP DEMAND BRANCH 13,MAIN SERVICE WATER LOOP,Demand
     Plant Loop Connector Nodes,   13,Splitter,MAIN SERVICE WATER LOOP DEMAND SPLITTER,MAIN SERVICE WATER LOOP DEMAND INLET PIPE NODE,WATER USE CONNECTIONS 12 INLET WATER NODE,MAIN SERVICE WATER LOOP,Demand
     Plant Loop Connector Branches,14,Splitter,MAIN SERVICE WATER LOOP DEMAND SPLITTER,MAIN SERVICE WATER LOOP DEMAND INLET BRANCH,MAIN SERVICE WATER LOOP DEMAND BRANCH 14,MAIN SERVICE WATER LOOP,Demand
     Plant Loop Connector Nodes,   14,Splitter,MAIN SERVICE WATER LOOP DEMAND SPLITTER,MAIN SERVICE WATER LOOP DEMAND INLET PIPE NODE,WATER USE CONNECTIONS 13 INLET WATER NODE,MAIN SERVICE WATER LOOP,Demand
     Plant Loop Connector Branches,15,Splitter,MAIN SERVICE WATER LOOP DEMAND SPLITTER,MAIN SERVICE WATER LOOP DEMAND INLET BRANCH,MAIN SERVICE WATER LOOP DEMAND BRANCH 15,MAIN SERVICE WATER LOOP,Demand
     Plant Loop Connector Nodes,   15,Splitter,MAIN SERVICE WATER LOOP DEMAND SPLITTER,MAIN SERVICE WATER LOOP DEMAND INLET PIPE NODE,WATER USE CONNECTIONS 14 INLET WATER NODE,MAIN SERVICE WATER LOOP,Demand
     Plant Loop Connector Branches,16,Splitter,MAIN SERVICE WATER LOOP DEMAND SPLITTER,MAIN SERVICE WATER LOOP DEMAND INLET BRANCH,MAIN SERVICE WATER LOOP DEMAND BRANCH 16,MAIN SERVICE WATER LOOP,Demand
     Plant Loop Connector Nodes,   16,Splitter,MAIN SERVICE WATER LOOP DEMAND SPLITTER,MAIN SERVICE WATER LOOP DEMAND INLET PIPE NODE,WATER USE CONNECTIONS 15 INLET WATER NODE,MAIN SERVICE WATER LOOP,Demand
     Plant Loop Connector Branches,17,Splitter,MAIN SERVICE WATER LOOP DEMAND SPLITTER,MAIN SERVICE WATER LOOP DEMAND INLET BRANCH,MAIN SERVICE WATER LOOP DEMAND BYPASS BRANCH,MAIN SERVICE WATER LOOP,Demand
     Plant Loop Connector Nodes,   17,Splitter,MAIN SERVICE WATER LOOP DEMAND SPLITTER,MAIN SERVICE WATER LOOP DEMAND INLET PIPE NODE,MAIN SERVICE WATER LOOP DEMAND BYPASS PIPE INLET NODE,MAIN SERVICE WATER LOOP,Demand
   Plant Loop Connector,Mixer,MAIN SERVICE WATER LOOP DEMAND MIXER,MAIN SERVICE WATER LOOP,Demand,17
     Plant Loop Connector Branches,1,Mixer,MAIN SERVICE WATER LOOP DEMAND MIXER,MAIN SERVICE WATER LOOP DEMAND BRANCH 1,MAIN SERVICE WATER LOOP DEMAND OUTLET BRANCH,MAIN SERVICE WATER LOOP,Demand
     Plant Loop Connector Nodes,   1,Mixer,MAIN SERVICE WATER LOOP DEMAND MIXER,PIPE ADIABATIC 2 OUTLET WATER NODE,PIPE ADIABATIC 4 INLET WATER NODE,MAIN SERVICE WATER LOOP,Demand
     Plant Loop Connector Branches,2,Mixer,MAIN SERVICE WATER LOOP DEMAND MIXER,MAIN SERVICE WATER LOOP DEMAND BRANCH 2,MAIN SERVICE WATER LOOP DEMAND OUTLET BRANCH,MAIN SERVICE WATER LOOP,Demand
     Plant Loop Connector Nodes,   2,Mixer,MAIN SERVICE WATER LOOP DEMAND MIXER,WATER USE CONNECTIONS 1 OUTLET WATER NODE,PIPE ADIABATIC 4 INLET WATER NODE,MAIN SERVICE WATER LOOP,Demand
     Plant Loop Connector Branches,3,Mixer,MAIN SERVICE WATER LOOP DEMAND MIXER,MAIN SERVICE WATER LOOP DEMAND BRANCH 3,MAIN SERVICE WATER LOOP DEMAND OUTLET BRANCH,MAIN SERVICE WATER LOOP,Demand
     Plant Loop Connector Nodes,   3,Mixer,MAIN SERVICE WATER LOOP DEMAND MIXER,WATER USE CONNECTIONS 2 OUTLET WATER NODE,PIPE ADIABATIC 4 INLET WATER NODE,MAIN SERVICE WATER LOOP,Demand
     Plant Loop Connector Branches,4,Mixer,MAIN SERVICE WATER LOOP DEMAND MIXER,MAIN SERVICE WATER LOOP DEMAND BRANCH 4,MAIN SERVICE WATER LOOP DEMAND OUTLET BRANCH,MAIN SERVICE WATER LOOP,Demand
     Plant Loop Connector Nodes,   4,Mixer,MAIN SERVICE WATER LOOP DEMAND MIXER,WATER USE CONNECTIONS 3 OUTLET WATER NODE,PIPE ADIABATIC 4 INLET WATER NODE,MAIN SERVICE WATER LOOP,Demand
     Plant Loop Connector Branches,5,Mixer,MAIN SERVICE WATER LOOP DEMAND MIXER,MAIN SERVICE WATER LOOP DEMAND BRANCH 5,MAIN SERVICE WATER LOOP DEMAND OUTLET BRANCH,MAIN SERVICE WATER LOOP,Demand
     Plant Loop Connector Nodes,   5,Mixer,MAIN SERVICE WATER LOOP DEMAND MIXER,WATER USE CONNECTIONS 4 OUTLET WATER NODE,PIPE ADIABATIC 4 INLET WATER NODE,MAIN SERVICE WATER LOOP,Demand
     Plant Loop Connector Branches,6,Mixer,MAIN SERVICE WATER LOOP DEMAND MIXER,MAIN SERVICE WATER LOOP DEMAND BRANCH 6,MAIN SERVICE WATER LOOP DEMAND OUTLET BRANCH,MAIN SERVICE WATER LOOP,Demand
     Plant Loop Connector Nodes,   6,Mixer,MAIN SERVICE WATER LOOP DEMAND MIXER,WATER USE CONNECTIONS 5 OUTLET WATER NODE,PIPE ADIABATIC 4 INLET WATER NODE,MAIN SERVICE WATER LOOP,Demand
     Plant Loop Connector Branches,7,Mixer,MAIN SERVICE WATER LOOP DEMAND MIXER,MAIN SERVICE WATER LOOP DEMAND BRANCH 7,MAIN SERVICE WATER LOOP DEMAND OUTLET BRANCH,MAIN SERVICE WATER LOOP,Demand
     Plant Loop Connector Nodes,   7,Mixer,MAIN SERVICE WATER LOOP DEMAND MIXER,WATER USE CONNECTIONS 6 OUTLET WATER NODE,PIPE ADIABATIC 4 INLET WATER NODE,MAIN SERVICE WATER LOOP,Demand
     Plant Loop Connector Branches,8,Mixer,MAIN SERVICE WATER LOOP DEMAND MIXER,MAIN SERVICE WATER LOOP DEMAND BRANCH 8,MAIN SERVICE WATER LOOP DEMAND OUTLET BRANCH,MAIN SERVICE WATER LOOP,Demand
     Plant Loop Connector Nodes,   8,Mixer,MAIN SERVICE WATER LOOP DEMAND MIXER,WATER USE CONNECTIONS 7 OUTLET WATER NODE,PIPE ADIABATIC 4 INLET WATER NODE,MAIN SERVICE WATER LOOP,Demand
     Plant Loop Connector Branches,9,Mixer,MAIN SERVICE WATER LOOP DEMAND MIXER,MAIN SERVICE WATER LOOP DEMAND BRANCH 9,MAIN SERVICE WATER LOOP DEMAND OUTLET BRANCH,MAIN SERVICE WATER LOOP,Demand
     Plant Loop Connector Nodes,   9,Mixer,MAIN SERVICE WATER LOOP DEMAND MIXER,WATER USE CONNECTIONS 8 OUTLET WATER NODE,PIPE ADIABATIC 4 INLET WATER NODE,MAIN SERVICE WATER LOOP,Demand
     Plant Loop Connector Branches,10,Mixer,MAIN SERVICE WATER LOOP DEMAND MIXER,MAIN SERVICE WATER LOOP DEMAND BRANCH 10,MAIN SERVICE WATER LOOP DEMAND OUTLET BRANCH,MAIN SERVICE WATER LOOP,Demand
     Plant Loop Connector Nodes,   10,Mixer,MAIN SERVICE WATER LOOP DEMAND MIXER,WATER USE CONNECTIONS 9 OUTLET WATER NODE,PIPE ADIABATIC 4 INLET WATER NODE,MAIN SERVICE WATER LOOP,Demand
     Plant Loop Connector Branches,11,Mixer,MAIN SERVICE WATER LOOP DEMAND MIXER,MAIN SERVICE WATER LOOP DEMAND BRANCH 11,MAIN SERVICE WATER LOOP DEMAND OUTLET BRANCH,MAIN SERVICE WATER LOOP,Demand
     Plant Loop Connector Nodes,   11,Mixer,MAIN SERVICE WATER LOOP DEMAND MIXER,WATER USE CONNECTIONS 10 OUTLET WATER NODE,PIPE ADIABATIC 4 INLET WATER NODE,MAIN SERVICE WATER LOOP,Demand
     Plant Loop Connector Branches,12,Mixer,MAIN SERVICE WATER LOOP DEMAND MIXER,MAIN SERVICE WATER LOOP DEMAND BRANCH 12,MAIN SERVICE WATER LOOP DEMAND OUTLET BRANCH,MAIN SERVICE WATER LOOP,Demand
     Plant Loop Connector Nodes,   12,Mixer,MAIN SERVICE WATER LOOP DEMAND MIXER,WATER USE CONNECTIONS 11 OUTLET WATER NODE,PIPE ADIABATIC 4 INLET WATER NODE,MAIN SERVICE WATER LOOP,Demand
     Plant Loop Connector Branches,13,Mixer,MAIN SERVICE WATER LOOP DEMAND MIXER,MAIN SERVICE WATER LOOP DEMAND BRANCH 13,MAIN SERVICE WATER LOOP DEMAND OUTLET BRANCH,MAIN SERVICE WATER LOOP,Demand
     Plant Loop Connector Nodes,   13,Mixer,MAIN SERVICE WATER LOOP DEMAND MIXER,WATER USE CONNECTIONS 12 OUTLET WATER NODE,PIPE ADIABATIC 4 INLET WATER NODE,MAIN SERVICE WATER LOOP,Demand
     Plant Loop Connector Branches,14,Mixer,MAIN SERVICE WATER LOOP DEMAND MIXER,MAIN SERVICE WATER LOOP DEMAND BRANCH 14,MAIN SERVICE WATER LOOP DEMAND OUTLET BRANCH,MAIN SERVICE WATER LOOP,Demand
     Plant Loop Connector Nodes,   14,Mixer,MAIN SERVICE WATER LOOP DEMAND MIXER,WATER USE CONNECTIONS 13 OUTLET WATER NODE,PIPE ADIABATIC 4 INLET WATER NODE,MAIN SERVICE WATER LOOP,Demand
     Plant Loop Connector Branches,15,Mixer,MAIN SERVICE WATER LOOP DEMAND MIXER,MAIN SERVICE WATER LOOP DEMAND BRANCH 15,MAIN SERVICE WATER LOOP DEMAND OUTLET BRANCH,MAIN SERVICE WATER LOOP,Demand
     Plant Loop Connector Nodes,   15,Mixer,MAIN SERVICE WATER LOOP DEMAND MIXER,WATER USE CONNECTIONS 14 OUTLET WATER NODE,PIPE ADIABATIC 4 INLET WATER NODE,MAIN SERVICE WATER LOOP,Demand
     Plant Loop Connector Branches,16,Mixer,MAIN SERVICE WATER LOOP DEMAND MIXER,MAIN SERVICE WATER LOOP DEMAND BRANCH 16,MAIN SERVICE WATER LOOP DEMAND OUTLET BRANCH,MAIN SERVICE WATER LOOP,Demand
     Plant Loop Connector Nodes,   16,Mixer,MAIN SERVICE WATER LOOP DEMAND MIXER,WATER USE CONNECTIONS 15 OUTLET WATER NODE,PIPE ADIABATIC 4 INLET WATER NODE,MAIN SERVICE WATER LOOP,Demand
     Plant Loop Connector Branches,17,Mixer,MAIN SERVICE WATER LOOP DEMAND MIXER,MAIN SERVICE WATER LOOP DEMAND BYPASS BRANCH,MAIN SERVICE WATER LOOP DEMAND OUTLET BRANCH,MAIN SERVICE WATER LOOP,Demand
     Plant Loop Connector Nodes,   17,Mixer,MAIN SERVICE WATER LOOP DEMAND MIXER,MAIN SERVICE WATER LOOP DEMAND BYPASS PIPE OUTLET NODE,PIPE ADIABATIC 4 INLET WATER NODE,MAIN SERVICE WATER LOOP,Demand
 Plant Loop,MAIN SERVICE WATER LOOP,Supply,MAIN SERVICE WATER LOOP SUPPLY INLET NODE,MAIN SERVICE WATER LOOP SUPPLY OUTLET NODE,MAIN SERVICE WATER LOOP SUPPLY BRANCHES,MAIN SERVICE WATER LOOP SUPPLY CONNECTOR LIST
   Plant Loop Connector,Splitter,MAIN SERVICE WATER LOOP SUPPLY SPLITTER,MAIN SERVICE WATER LOOP,Supply,2
     Plant Loop Connector Branches,1,Splitter,MAIN SERVICE WATER LOOP SUPPLY SPLITTER,MAIN SERVICE WATER LOOP SUPPLY INLET BRANCH,MAIN SERVICE WATER LOOP SUPPLY BRANCH 1,MAIN SERVICE WATER LOOP,Supply
     Plant Loop Connector Nodes,   1,Splitter,MAIN SERVICE WATER LOOP SUPPLY SPLITTER,MAIN SERVICE WATER LOOP CIRCULATOR PUMP OUTLET WATER NODE,100GAL NATURAL GAS WATER HEATER - 100KBTU/HR 0.808 THERM EFF SUPPLY INLET WATER NODE,MAIN SERVICE WATER LOOP,Supply
     Plant Loop Connector Branches,2,Splitter,MAIN SERVICE WATER LOOP SUPPLY SPLITTER,MAIN SERVICE WATER LOOP SUPPLY INLET BRANCH,MAIN SERVICE WATER LOOP SUPPLY BRANCH 2,MAIN SERVICE WATER LOOP,Supply
     Plant Loop Connector Nodes,   2,Splitter,MAIN SERVICE WATER LOOP SUPPLY SPLITTER,MAIN SERVICE WATER LOOP CIRCULATOR PUMP OUTLET WATER NODE,PIPE ADIABATIC 1 INLET WATER NODE,MAIN SERVICE WATER LOOP,Supply
   Plant Loop Connector,Mixer,MAIN SERVICE WATER LOOP SUPPLY MIXER,MAIN SERVICE WATER LOOP,Supply,2
     Plant Loop Connector Branches,1,Mixer,MAIN SERVICE WATER LOOP SUPPLY MIXER,MAIN SERVICE WATER LOOP SUPPLY BRANCH 1,MAIN SERVICE WATER LOOP SUPPLY OUTLET BRANCH,MAIN SERVICE WATER LOOP,Supply
     Plant Loop Connector Nodes,   1,Mixer,MAIN SERVICE WATER LOOP SUPPLY MIXER,100GAL NATURAL GAS WATER HEATER - 100KBTU/HR 0.808 THERM EFF SUPPLY OUTLET WATER NODE,PIPE ADIABATIC 3 INLET WATER NODE,MAIN SERVICE WATER LOOP,Supply
     Plant Loop Connector Branches,2,Mixer,MAIN SERVICE WATER LOOP SUPPLY MIXER,MAIN SERVICE WATER LOOP SUPPLY BRANCH 2,MAIN SERVICE WATER LOOP SUPPLY OUTLET BRANCH,MAIN SERVICE WATER LOOP,Supply
     Plant Loop Connector Nodes,   2,Mixer,MAIN SERVICE WATER LOOP SUPPLY MIXER,PIPE ADIABATIC 1 OUTLET WATER NODE,PIPE ADIABATIC 3 INLET WATER NODE,MAIN SERVICE WATER LOOP,Supply
 Plant Loop Supply Connection,MAIN SERVICE WATER LOOP,MAIN SERVICE WATER LOOP SUPPLY OUTLET NODE,MAIN SERVICE WATER LOOP DEMAND INLET NODE
 Plant Loop Return Connection,MAIN SERVICE WATER LOOP,MAIN SERVICE WATER LOOP DEMAND OUTLET NODE,MAIN SERVICE WATER LOOP SUPPLY INLET NODE
! ===============================================================
! <# Condenser Loops>,<Number of Condenser Loops>
 #Condenser Loops,0
! <Condenser Loop>,<Condenser Loop Name>,<Loop Type>,<Inlet Node Name>,<Outlet Node Name>,<Branch List>,<Connector List>
! <Condenser Loop Connector>,<Connector Type>,<Connector Name>,<Loop Name>,<Loop Type>,<Number of Inlets/Outlets>
! <Condenser Loop Connector Branches>,<Connector Node Count>,<Connector Type>,<Connector Name>,<Inlet Branch>,<Outlet Branch>,<Loop Name>,<Loop Type>
! <Condenser Loop Connector Nodes>,<Connector Node Count>,<Connector Type>,<Connector Name>,<Inlet Node>,<Outlet Node>,<Loop Name>,<Loop Type>
! <Condenser Loop Supply Connection>,<Condenser Loop Name>,<Supply Side Outlet Node Name>,<Demand Side Inlet Node Name>
! <Condenser Loop Return Connection>,<Condenser Loop Name>,<Demand Side Outlet Node Name>,<Supply Side Inlet Node Name>
! ===============================================================
! <# Controlled Zones>,<Number of Controlled Zones>
 #Controlled Zones,15
! <Controlled Zone>,<Controlled Zone Name>,<Equip List Name>,<Control List Name>,<Zone Node Name>,<# Inlet Nodes>,<# Exhaust Nodes>,<# Return Nodes>
! <Controlled Zone Inlet>,<Inlet Node Count>,<Controlled Zone Name>,<Supply Air Inlet Node Name>,<SD Sys:Cooling/Heating [DD:Cooling] Inlet Node Name>,<DD Sys:Heating Inlet Node Name>
! <Controlled Zone Exhaust>,<Exhaust Node Count>,<Controlled Zone Name>,<Exhaust Air Node Name>
 Controlled Zone,CORE_BOTTOM ZN,CORE_BOTTOM ZN EQUIPMENT LIST,,CORE_BOTTOM ZN ZONE AIR NODE,1,0,1
   Controlled Zone Inlet,1,CORE_BOTTOM ZN,CORE_BOTTOM ZN VAV TERMINAL OUTLET AIR NODE,CORE_BOTTOM ZN VAV TERMINAL INLET AIR NODE,N/A
   Controlled Zone Return,1,CORE_BOTTOM ZN,CORE_BOTTOM ZN RETURN AIR NODE
 Controlled Zone,CORE_MID ZN,CORE_MID ZN EQUIPMENT LIST,,CORE_MID ZN ZONE AIR NODE,1,0,1
   Controlled Zone Inlet,1,CORE_MID ZN,CORE_MID ZN VAV TERMINAL OUTLET AIR NODE,CORE_MID ZN VAV TERMINAL INLET AIR NODE,N/A
   Controlled Zone Return,1,CORE_MID ZN,CORE_MID ZN RETURN AIR NODE
 Controlled Zone,CORE_TOP ZN,CORE_TOP ZN EQUIPMENT LIST,,CORE_TOP ZN ZONE AIR NODE,1,0,1
   Controlled Zone Inlet,1,CORE_TOP ZN,CORE_TOP ZN VAV TERMINAL OUTLET AIR NODE,CORE_TOP ZN VAV TERMINAL INLET AIR NODE,N/A
   Controlled Zone Return,1,CORE_TOP ZN,CORE_TOP ZN RETURN AIR NODE
 Controlled Zone,PERIMETER_BOT_ZN_1 ZN,PERIMETER_BOT_ZN_1 ZN EQUIPMENT LIST,,PERIMETER_BOT_ZN_1 ZN ZONE AIR NODE,1,0,1
   Controlled Zone Inlet,1,PERIMETER_BOT_ZN_1 ZN,PERIMETER_BOT_ZN_1 ZN VAV TERMINAL OUTLET AIR NODE,PERIMETER_BOT_ZN_1 ZN VAV TERMINAL INLET AIR NODE,N/A
   Controlled Zone Return,1,PERIMETER_BOT_ZN_1 ZN,PERIMETER_BOT_ZN_1 ZN RETURN AIR NODE
 Controlled Zone,PERIMETER_BOT_ZN_2 ZN,PERIMETER_BOT_ZN_2 ZN EQUIPMENT LIST,,PERIMETER_BOT_ZN_2 ZN ZONE AIR NODE,1,0,1
   Controlled Zone Inlet,1,PERIMETER_BOT_ZN_2 ZN,PERIMETER_BOT_ZN_2 ZN VAV TERMINAL OUTLET AIR NODE,PERIMETER_BOT_ZN_2 ZN VAV TERMINAL INLET AIR NODE,N/A
   Controlled Zone Return,1,PERIMETER_BOT_ZN_2 ZN,PERIMETER_BOT_ZN_2 ZN RETURN AIR NODE
 Controlled Zone,PERIMETER_BOT_ZN_3 ZN,PERIMETER_BOT_ZN_3 ZN EQUIPMENT LIST,,PERIMETER_BOT_ZN_3 ZN ZONE AIR NODE,1,0,1
   Controlled Zone Inlet,1,PERIMETER_BOT_ZN_3 ZN,PERIMETER_BOT_ZN_3 ZN VAV TERMINAL OUTLET AIR NODE,PERIMETER_BOT_ZN_3 ZN VAV TERMINAL INLET AIR NODE,N/A
   Controlled Zone Return,1,PERIMETER_BOT_ZN_3 ZN,PERIMETER_BOT_ZN_3 ZN RETURN AIR NODE
 Controlled Zone,PERIMETER_BOT_ZN_4 ZN,PERIMETER_BOT_ZN_4 ZN EQUIPMENT LIST,,PERIMETER_BOT_ZN_4 ZN ZONE AIR NODE,1,0,1
   Controlled Zone Inlet,1,PERIMETER_BOT_ZN_4 ZN,PERIMETER_BOT_ZN_4 ZN VAV TERMINAL OUTLET AIR NODE,PERIMETER_BOT_ZN_4 ZN VAV TERMINAL INLET AIR NODE,N/A
   Controlled Zone Return,1,PERIMETER_BOT_ZN_4 ZN,PERIMETER_BOT_ZN_4 ZN RETURN AIR NODE
 Controlled Zone,PERIMETER_MID_ZN_1 ZN,PERIMETER_MID_ZN_1 ZN EQUIPMENT LIST,,PERIMETER_MID_ZN_1 ZN ZONE AIR NODE,1,0,1
   Controlled Zone Inlet,1,PERIMETER_MID_ZN_1 ZN,PERIMETER_MID_ZN_1 ZN VAV TERMINAL OUTLET AIR NODE,PERIMETER_MID_ZN_1 ZN VAV TERMINAL INLET AIR NODE,N/A
   Controlled Zone Return,1,PERIMETER_MID_ZN_1 ZN,PERIMETER_MID_ZN_1 ZN RETURN AIR NODE
 Controlled Zone,PERIMETER_MID_ZN_2 ZN,PERIMETER_MID_ZN_2 ZN EQUIPMENT LIST,,PERIMETER_MID_ZN_2 ZN ZONE AIR NODE,1,0,1
   Controlled Zone Inlet,1,PERIMETER_MID_ZN_2 ZN,PERIMETER_MID_ZN_2 ZN VAV TERMINAL OUTLET AIR NODE,PERIMETER_MID_ZN_2 ZN VAV TERMINAL INLET AIR NODE,N/A
   Controlled Zone Return,1,PERIMETER_MID_ZN_2 ZN,PERIMETER_MID_ZN_2 ZN RETURN AIR NODE
 Controlled Zone,PERIMETER_MID_ZN_3 ZN,PERIMETER_MID_ZN_3 ZN EQUIPMENT LIST,,PERIMETER_MID_ZN_3 ZN ZONE AIR NODE,1,0,1
   Controlled Zone Inlet,1,PERIMETER_MID_ZN_3 ZN,PERIMETER_MID_ZN_3 ZN VAV TERMINAL OUTLET AIR NODE,PERIMETER_MID_ZN_3 ZN VAV TERMINAL INLET AIR NODE,N/A
   Controlled Zone Return,1,PERIMETER_MID_ZN_3 ZN,PERIMETER_MID_ZN_3 ZN RETURN AIR NODE
 Controlled Zone,PERIMETER_MID_ZN_4 ZN,PERIMETER_MID_ZN_4 ZN EQUIPMENT LIST,,PERIMETER_MID_ZN_4 ZN ZONE AIR NODE,1,0,1
   Controlled Zone Inlet,1,PERIMETER_MID_ZN_4 ZN,PERIMETER_MID_ZN_4 ZN VAV TERMINAL OUTLET AIR NODE,PERIMETER_MID_ZN_4 ZN VAV TERMINAL INLET AIR NODE,N/A
   Controlled Zone Return,1,PERIMETER_MID_ZN_4 ZN,PERIMETER_MID_ZN_4 ZN RETURN AIR NODE
 Controlled Zone,PERIMETER_TOP_ZN_1 ZN,PERIMETER_TOP_ZN_1 ZN EQUIPMENT LIST,,PERIMETER_TOP_ZN_1 ZN ZONE AIR NODE,1,0,1
   Controlled Zone Inlet,1,PERIMETER_TOP_ZN_1 ZN,PERIMETER_TOP_ZN_1 ZN VAV TERMINAL OUTLET AIR NODE,PERIMETER_TOP_ZN_1 ZN VAV TERMINAL INLET AIR NODE,N/A
   Controlled Zone Return,1,PERIMETER_TOP_ZN_1 ZN,PERIMETER_TOP_ZN_1 ZN RETURN AIR NODE
 Controlled Zone,PERIMETER_TOP_ZN_2 ZN,PERIMETER_TOP_ZN_2 ZN EQUIPMENT LIST,,PERIMETER_TOP_ZN_2 ZN ZONE AIR NODE,1,0,1
   Controlled Zone Inlet,1,PERIMETER_TOP_ZN_2 ZN,PERIMETER_TOP_ZN_2 ZN VAV TERMINAL OUTLET AIR NODE,PERIMETER_TOP_ZN_2 ZN VAV TERMINAL INLET AIR NODE,N/A
   Controlled Zone Return,1,PERIMETER_TOP_ZN_2 ZN,PERIMETER_TOP_ZN_2 ZN RETURN AIR NODE
 Controlled Zone,PERIMETER_TOP_ZN_3 ZN,PERIMETER_TOP_ZN_3 ZN EQUIPMENT LIST,,PERIMETER_TOP_ZN_3 ZN ZONE AIR NODE,1,0,1
   Controlled Zone Inlet,1,PERIMETER_TOP_ZN_3 ZN,PERIMETER_TOP_ZN_3 ZN VAV TERMINAL OUTLET AIR NODE,PERIMETER_TOP_ZN_3 ZN VAV TERMINAL INLET AIR NODE,N/A
   Controlled Zone Return,1,PERIMETER_TOP_ZN_3 ZN,PERIMETER_TOP_ZN_3 ZN RETURN AIR NODE
 Controlled Zone,PERIMETER_TOP_ZN_4 ZN,PERIMETER_TOP_ZN_4 ZN EQUIPMENT LIST,,PERIMETER_TOP_ZN_4 ZN ZONE AIR NODE,1,0,1
   Controlled Zone Inlet,1,PERIMETER_TOP_ZN_4 ZN,PERIMETER_TOP_ZN_4 ZN VAV TERMINAL OUTLET AIR NODE,PERIMETER_TOP_ZN_4 ZN VAV TERMINAL INLET AIR NODE,N/A
   Controlled Zone Return,1,PERIMETER_TOP_ZN_4 ZN,PERIMETER_TOP_ZN_4 ZN RETURN AIR NODE
! ===============================================================
! <#Zone Equipment Lists>,<Number of Zone Equipment Lists>
 #Zone Equipment Lists,15
! <Zone Equipment List>,<Zone Equipment List Count>,<Zone Equipment List Name>,<Zone Name>,<Number of Components>
! <Zone Equipment Component>,<Component Count>,<Component Type>,<Component Name>,<Zone Name>,<Heating Priority>,<Cooling Priority>
 Zone Equipment List,1,CORE_BOTTOM ZN EQUIPMENT LIST,CORE_BOTTOM ZN,1
   Zone Equipment Component,1,ZONEHVAC:AIRDISTRIBUTIONUNIT,ADU CORE_BOTTOM ZN VAV TERMINAL,CORE_BOTTOM ZN,1,1
 Zone Equipment List,2,CORE_MID ZN EQUIPMENT LIST,CORE_MID ZN,1
   Zone Equipment Component,1,ZONEHVAC:AIRDISTRIBUTIONUNIT,ADU CORE_MID ZN VAV TERMINAL,CORE_MID ZN,1,1
 Zone Equipment List,3,CORE_TOP ZN EQUIPMENT LIST,CORE_TOP ZN,1
   Zone Equipment Component,1,ZONEHVAC:AIRDISTRIBUTIONUNIT,ADU CORE_TOP ZN VAV TERMINAL,CORE_TOP ZN,1,1
 Zone Equipment List,6,PERIMETER_BOT_ZN_1 ZN EQUIPMENT LIST,PERIMETER_BOT_ZN_1 ZN,1
   Zone Equipment Component,1,ZONEHVAC:AIRDISTRIBUTIONUNIT,ADU PERIMETER_BOT_ZN_1 ZN VAV TERMINAL,PERIMETER_BOT_ZN_1 ZN,1,1
 Zone Equipment List,7,PERIMETER_BOT_ZN_2 ZN EQUIPMENT LIST,PERIMETER_BOT_ZN_2 ZN,1
   Zone Equipment Component,1,ZONEHVAC:AIRDISTRIBUTIONUNIT,ADU PERIMETER_BOT_ZN_2 ZN VAV TERMINAL,PERIMETER_BOT_ZN_2 ZN,1,1
 Zone Equipment List,8,PERIMETER_BOT_ZN_3 ZN EQUIPMENT LIST,PERIMETER_BOT_ZN_3 ZN,1
   Zone Equipment Component,1,ZONEHVAC:AIRDISTRIBUTIONUNIT,ADU PERIMETER_BOT_ZN_3 ZN VAV TERMINAL,PERIMETER_BOT_ZN_3 ZN,1,1
 Zone Equipment List,9,PERIMETER_BOT_ZN_4 ZN EQUIPMENT LIST,PERIMETER_BOT_ZN_4 ZN,1
   Zone Equipment Component,1,ZONEHVAC:AIRDISTRIBUTIONUNIT,ADU PERIMETER_BOT_ZN_4 ZN VAV TERMINAL,PERIMETER_BOT_ZN_4 ZN,1,1
 Zone Equipment List,10,PERIMETER_MID_ZN_1 ZN EQUIPMENT LIST,PERIMETER_MID_ZN_1 ZN,1
   Zone Equipment Component,1,ZONEHVAC:AIRDISTRIBUTIONUNIT,ADU PERIMETER_MID_ZN_1 ZN VAV TERMINAL,PERIMETER_MID_ZN_1 ZN,1,1
 Zone Equipment List,11,PERIMETER_MID_ZN_2 ZN EQUIPMENT LIST,PERIMETER_MID_ZN_2 ZN,1
   Zone Equipment Component,1,ZONEHVAC:AIRDISTRIBUTIONUNIT,ADU PERIMETER_MID_ZN_2 ZN VAV TERMINAL,PERIMETER_MID_ZN_2 ZN,1,1
 Zone Equipment List,12,PERIMETER_MID_ZN_3 ZN EQUIPMENT LIST,PERIMETER_MID_ZN_3 ZN,1
   Zone Equipment Component,1,ZONEHVAC:AIRDISTRIBUTIONUNIT,ADU PERIMETER_MID_ZN_3 ZN VAV TERMINAL,PERIMETER_MID_ZN_3 ZN,1,1
 Zone Equipment List,13,PERIMETER_MID_ZN_4 ZN EQUIPMENT LIST,PERIMETER_MID_ZN_4 ZN,1
   Zone Equipment Component,1,ZONEHVAC:AIRDISTRIBUTIONUNIT,ADU PERIMETER_MID_ZN_4 ZN VAV TERMINAL,PERIMETER_MID_ZN_4 ZN,1,1
 Zone Equipment List,14,PERIMETER_TOP_ZN_1 ZN EQUIPMENT LIST,PERIMETER_TOP_ZN_1 ZN,1
   Zone Equipment Component,1,ZONEHVAC:AIRDISTRIBUTIONUNIT,ADU PERIMETER_TOP_ZN_1 ZN VAV TERMINAL,PERIMETER_TOP_ZN_1 ZN,1,1
 Zone Equipment List,15,PERIMETER_TOP_ZN_2 ZN EQUIPMENT LIST,PERIMETER_TOP_ZN_2 ZN,1
   Zone Equipment Component,1,ZONEHVAC:AIRDISTRIBUTIONUNIT,ADU PERIMETER_TOP_ZN_2 ZN VAV TERMINAL,PERIMETER_TOP_ZN_2 ZN,1,1
 Zone Equipment List,16,PERIMETER_TOP_ZN_3 ZN EQUIPMENT LIST,PERIMETER_TOP_ZN_3 ZN,1
   Zone Equipment Component,1,ZONEHVAC:AIRDISTRIBUTIONUNIT,ADU PERIMETER_TOP_ZN_3 ZN VAV TERMINAL,PERIMETER_TOP_ZN_3 ZN,1,1
 Zone Equipment List,17,PERIMETER_TOP_ZN_4 ZN EQUIPMENT LIST,PERIMETER_TOP_ZN_4 ZN,1
   Zone Equipment Component,1,ZONEHVAC:AIRDISTRIBUTIONUNIT,ADU PERIMETER_TOP_ZN_4 ZN VAV TERMINAL,PERIMETER_TOP_ZN_4 ZN,1,1
! ===============================================================
! <#AirLoopHVACs>,<Number of AirLoopHVACs>
 #AirLoopHVACs,3
! <AirLoopHVAC>,<Air Loop Name>,<# Return Nodes>,<# Supply Nodes>,<# Zones Cooled>,<# Zones Heated>,<Outdoor Air Used>
! <AirLoop Return Connections>,<Connection Count>,<AirLoopHVAC Name>,<Zn Eqp Return Node #>,<Zn Eqp Return Node Name>,<AirLoop Return Node #>,<Air Loop Return Node Name>
! <AirLoop Supply Connections>,<Connection Count>,<AirLoopHVAC Name>,<Zn Eqp Supply Node #>,<Zn Eqp Supply Node Name>,<AirLoop Supply Node #>,<Air Loop Supply Node Name>
! <Cooled Zone Info>,<Cooled Zone Count>,<Cooled Zone Name>,<Cooled Zone Inlet Node #>,<Cooled Zone Inlet Node Name>,<AirLoopHVAC Name>
! <Heated Zone Info>,<Heated Zone Count>,<Heated Zone Name>,<Heated Zone Inlet Node #>,<Heated Zone Inlet Node Name>,<AirLoopHVAC Name>
! <Outdoor Air Connections>,<OA Inlet Node #>,<OA Return Air Inlet Node Name>,<OA Outlet Node #>,<OA Mixed Air Outlet Node Name>,<AirLoopHVAC Name>
! <AirLoopHVAC Connector>,<Connector Type>,<Connector Name>,<Loop Name>,<Loop Type>,<Number of Inlets/Outlets>
! <AirLoopHVAC Connector Branches>,<Connector Node Count>,<Connector Type>,<Connector Name>,<Inlet Branch>,<Outlet Branch>,<Loop Name>,<Loop Type>
! <AirLoopHVAC Connector Nodes>,<Connector Node Count>,<Connector Type>,<Connector Name>,<Inlet Node>,<Outlet Node>,<Loop Name>,<Loop Type>
 AirLoopHVAC,5 ZONE PVAV,1,1,5,0,Yes
   AirLoop Return Connections,1,5 ZONE PVAV,110,5 ZONE PVAV DEMAND OUTLET NODE,37,5 ZONE PVAV SUPPLY INLET NODE
   AirLoop Supply Connections,1,5 ZONE PVAV,32,5 ZONE PVAV DEMAND INLET NODE,31,5 ZONE PVAV SUPPLY OUTLET NODE
   Cooled Zone Info,1,PERIMETER_BOT_ZN_1 ZN,7,PERIMETER_BOT_ZN_1 ZN VAV TERMINAL OUTLET AIR NODE,5 ZONE PVAV
   Cooled Zone Info,2,PERIMETER_BOT_ZN_2 ZN,9,PERIMETER_BOT_ZN_2 ZN VAV TERMINAL OUTLET AIR NODE,5 ZONE PVAV
   Cooled Zone Info,3,PERIMETER_BOT_ZN_3 ZN,11,PERIMETER_BOT_ZN_3 ZN VAV TERMINAL OUTLET AIR NODE,5 ZONE PVAV
   Cooled Zone Info,4,PERIMETER_BOT_ZN_4 ZN,13,PERIMETER_BOT_ZN_4 ZN VAV TERMINAL OUTLET AIR NODE,5 ZONE PVAV
   Cooled Zone Info,5,CORE_BOTTOM ZN,1,CORE_BOTTOM ZN VAV TERMINAL OUTLET AIR NODE,5 ZONE PVAV
   Outdoor Air Connections,37,5 ZONE PVAV SUPPLY INLET NODE,38,5 ZONE PVAV MIXED AIR NODE,5 ZONE PVAV
 AirLoopHVAC,5 ZONE PVAV 1,1,1,5,0,Yes
   AirLoop Return Connections,1,5 ZONE PVAV 1,111,5 ZONE PVAV 1 DEMAND OUTLET NODE,41,5 ZONE PVAV 1 SUPPLY INLET NODE
   AirLoop Supply Connections,1,5 ZONE PVAV 1,34,5 ZONE PVAV 1 DEMAND INLET NODE,33,5 ZONE PVAV 1 SUPPLY OUTLET NODE
   Cooled Zone Info,1,PERIMETER_MID_ZN_1 ZN,15,PERIMETER_MID_ZN_1 ZN VAV TERMINAL OUTLET AIR NODE,5 ZONE PVAV 1
   Cooled Zone Info,2,PERIMETER_MID_ZN_2 ZN,17,PERIMETER_MID_ZN_2 ZN VAV TERMINAL OUTLET AIR NODE,5 ZONE PVAV 1
   Cooled Zone Info,3,PERIMETER_MID_ZN_3 ZN,19,PERIMETER_MID_ZN_3 ZN VAV TERMINAL OUTLET AIR NODE,5 ZONE PVAV 1
   Cooled Zone Info,4,PERIMETER_MID_ZN_4 ZN,21,PERIMETER_MID_ZN_4 ZN VAV TERMINAL OUTLET AIR NODE,5 ZONE PVAV 1
   Cooled Zone Info,5,CORE_MID ZN,3,CORE_MID ZN VAV TERMINAL OUTLET AIR NODE,5 ZONE PVAV 1
   Outdoor Air Connections,41,5 ZONE PVAV 1 SUPPLY INLET NODE,42,5 ZONE PVAV 1 MIXED AIR NODE,5 ZONE PVAV 1
 AirLoopHVAC,5 ZONE PVAV 2,1,1,5,0,Yes
   AirLoop Return Connections,1,5 ZONE PVAV 2,112,5 ZONE PVAV 2 DEMAND OUTLET NODE,45,5 ZONE PVAV 2 SUPPLY INLET NODE
   AirLoop Supply Connections,1,5 ZONE PVAV 2,36,5 ZONE PVAV 2 DEMAND INLET NODE,35,5 ZONE PVAV 2 SUPPLY OUTLET NODE
   Cooled Zone Info,1,PERIMETER_TOP_ZN_1 ZN,23,PERIMETER_TOP_ZN_1 ZN VAV TERMINAL OUTLET AIR NODE,5 ZONE PVAV 2
   Cooled Zone Info,2,PERIMETER_TOP_ZN_2 ZN,25,PERIMETER_TOP_ZN_2 ZN VAV TERMINAL OUTLET AIR NODE,5 ZONE PVAV 2
   Cooled Zone Info,3,PERIMETER_TOP_ZN_3 ZN,27,PERIMETER_TOP_ZN_3 ZN VAV TERMINAL OUTLET AIR NODE,5 ZONE PVAV 2
   Cooled Zone Info,4,PERIMETER_TOP_ZN_4 ZN,29,PERIMETER_TOP_ZN_4 ZN VAV TERMINAL OUTLET AIR NODE,5 ZONE PVAV 2
   Cooled Zone Info,5,CORE_TOP ZN,5,CORE_TOP ZN VAV TERMINAL OUTLET AIR NODE,5 ZONE PVAV 2
   Outdoor Air Connections,45,5 ZONE PVAV 2 SUPPLY INLET NODE,46,5 ZONE PVAV 2 MIXED AIR NODE,5 ZONE PVAV 2
! ===============================================================
! <#Parent Node Connections>,<Number of Parent Node Connections>
 #Parent Node Connections,123
! <Parent Node Connection>,<Node Name>,<Node ObjectType>,<Node ObjectName>,<Node ConnectionType>,<Node FluidStream>
 Parent Node Connection,5 ZONE PVAV SUPPLY INLET NODE,BRANCH,5 ZONE PVAV MAIN BRANCH,Inlet,1
 Parent Node Connection,5 ZONE PVAV MIXED AIR NODE,BRANCH,5 ZONE PVAV MAIN BRANCH,Internal,1
 Parent Node Connection,5 ZONE PVAV 2SPD DX CLG COIL 376KBTU/HR 9.8EER OUTLET AIR NODE,BRANCH,5 ZONE PVAV MAIN BRANCH,Internal,1
 Parent Node Connection,5 ZONE PVAV MAIN GAS HTG COIL OUTLET AIR NODE,BRANCH,5 ZONE PVAV MAIN BRANCH,Internal,1
 Parent Node Connection,5 ZONE PVAV SUPPLY OUTLET NODE,BRANCH,5 ZONE PVAV MAIN BRANCH,Outlet,1
 Parent Node Connection,5 ZONE PVAV 1 SUPPLY INLET NODE,BRANCH,5 ZONE PVAV 1 MAIN BRANCH,Inlet,1
 Parent Node Connection,5 ZONE PVAV 1 MIXED AIR NODE,BRANCH,5 ZONE PVAV 1 MAIN BRANCH,Internal,1
 Parent Node Connection,5 ZONE PVAV 1 2SPD DX CLG COIL 310KBTU/HR 9.8EER OUTLET AIR NODE,BRANCH,5 ZONE PVAV 1 MAIN BRANCH,Internal,1
 Parent Node Connection,5 ZONE PVAV 1 MAIN GAS HTG COIL OUTLET AIR NODE,BRANCH,5 ZONE PVAV 1 MAIN BRANCH,Internal,1
 Parent Node Connection,5 ZONE PVAV 1 SUPPLY OUTLET NODE,BRANCH,5 ZONE PVAV 1 MAIN BRANCH,Outlet,1
 Parent Node Connection,5 ZONE PVAV 2 SUPPLY INLET NODE,BRANCH,5 ZONE PVAV 2 MAIN BRANCH,Inlet,1
 Parent Node Connection,5 ZONE PVAV 2 MIXED AIR NODE,BRANCH,5 ZONE PVAV 2 MAIN BRANCH,Internal,1
 Parent Node Connection,5 ZONE PVAV 2 2SPD DX CLG COIL 327KBTU/HR 9.8EER OUTLET AIR NODE,BRANCH,5 ZONE PVAV 2 MAIN BRANCH,Internal,1
 Parent Node Connection,5 ZONE PVAV 2 MAIN GAS HTG COIL OUTLET AIR NODE,BRANCH,5 ZONE PVAV 2 MAIN BRANCH,Internal,1
 Parent Node Connection,5 ZONE PVAV 2 SUPPLY OUTLET NODE,BRANCH,5 ZONE PVAV 2 MAIN BRANCH,Outlet,1
 Parent Node Connection,MAIN SERVICE WATER LOOP SUPPLY INLET NODE,BRANCH,MAIN SERVICE WATER LOOP SUPPLY INLET BRANCH,Inlet,1
 Parent Node Connection,MAIN SERVICE WATER LOOP CIRCULATOR PUMP OUTLET WATER NODE,BRANCH,MAIN SERVICE WATER LOOP SUPPLY INLET BRANCH,Outlet,1
 Parent Node Connection,100GAL NATURAL GAS WATER HEATER - 100KBTU/HR 0.808 THERM EFF SUPPLY INLET WATER NODE,BRANCH,MAIN SERVICE WATER LOOP SUPPLY BRANCH 1,Inlet,1
 Parent Node Connection,100GAL NATURAL GAS WATER HEATER - 100KBTU/HR 0.808 THERM EFF SUPPLY OUTLET WATER NODE,BRANCH,MAIN SERVICE WATER LOOP SUPPLY BRANCH 1,Outlet,1
 Parent Node Connection,PIPE ADIABATIC 1 INLET WATER NODE,BRANCH,MAIN SERVICE WATER LOOP SUPPLY BRANCH 2,Inlet,1
 Parent Node Connection,PIPE ADIABATIC 1 OUTLET WATER NODE,BRANCH,MAIN SERVICE WATER LOOP SUPPLY BRANCH 2,Outlet,1
 Parent Node Connection,PIPE ADIABATIC 3 INLET WATER NODE,BRANCH,MAIN SERVICE WATER LOOP SUPPLY OUTLET BRANCH,Inlet,1
 Parent Node Connection,MAIN SERVICE WATER LOOP SUPPLY OUTLET NODE,BRANCH,MAIN SERVICE WATER LOOP SUPPLY OUTLET BRANCH,Outlet,1
 Parent Node Connection,MAIN SERVICE WATER LOOP DEMAND INLET NODE,BRANCH,MAIN SERVICE WATER LOOP DEMAND INLET BRANCH,Inlet,1
 Parent Node Connection,MAIN SERVICE WATER LOOP DEMAND INLET PIPE NODE,BRANCH,MAIN SERVICE WATER LOOP DEMAND INLET BRANCH,Outlet,1
 Parent Node Connection,PIPE ADIABATIC 2 INLET WATER NODE,BRANCH,MAIN SERVICE WATER LOOP DEMAND BRANCH 1,Inlet,1
 Parent Node Connection,PIPE ADIABATIC 2 OUTLET WATER NODE,BRANCH,MAIN SERVICE WATER LOOP DEMAND BRANCH 1,Outlet,1
 Parent Node Connection,WATER USE CONNECTIONS 1 INLET WATER NODE,BRANCH,MAIN SERVICE WATER LOOP DEMAND BRANCH 2,Inlet,1
 Parent Node Connection,WATER USE CONNECTIONS 1 OUTLET WATER NODE,BRANCH,MAIN SERVICE WATER LOOP DEMAND BRANCH 2,Outlet,1
 Parent Node Connection,WATER USE CONNECTIONS 2 INLET WATER NODE,BRANCH,MAIN SERVICE WATER LOOP DEMAND BRANCH 3,Inlet,1
 Parent Node Connection,WATER USE CONNECTIONS 2 OUTLET WATER NODE,BRANCH,MAIN SERVICE WATER LOOP DEMAND BRANCH 3,Outlet,1
 Parent Node Connection,WATER USE CONNECTIONS 3 INLET WATER NODE,BRANCH,MAIN SERVICE WATER LOOP DEMAND BRANCH 4,Inlet,1
 Parent Node Connection,WATER USE CONNECTIONS 3 OUTLET WATER NODE,BRANCH,MAIN SERVICE WATER LOOP DEMAND BRANCH 4,Outlet,1
 Parent Node Connection,WATER USE CONNECTIONS 4 INLET WATER NODE,BRANCH,MAIN SERVICE WATER LOOP DEMAND BRANCH 5,Inlet,1
 Parent Node Connection,WATER USE CONNECTIONS 4 OUTLET WATER NODE,BRANCH,MAIN SERVICE WATER LOOP DEMAND BRANCH 5,Outlet,1
 Parent Node Connection,WATER USE CONNECTIONS 5 INLET WATER NODE,BRANCH,MAIN SERVICE WATER LOOP DEMAND BRANCH 6,Inlet,1
 Parent Node Connection,WATER USE CONNECTIONS 5 OUTLET WATER NODE,BRANCH,MAIN SERVICE WATER LOOP DEMAND BRANCH 6,Outlet,1
 Parent Node Connection,WATER USE CONNECTIONS 6 INLET WATER NODE,BRANCH,MAIN SERVICE WATER LOOP DEMAND BRANCH 7,Inlet,1
[...]
 Non-Parent Node Connection,5 ZONE PVAV 1 DEMAND INLET NODE,AIRLOOPHVAC:ZONESPLITTER,AIR LOOP HVAC ZONE SPLITTER 2,Inlet,1
 Non-Parent Node Connection,PERIMETER_MID_ZN_1 ZN VAV TERMINAL INLET AIR NODE,AIRLOOPHVAC:ZONESPLITTER,AIR LOOP HVAC ZONE SPLITTER 2,Outlet,1
 Non-Parent Node Connection,PERIMETER_MID_ZN_2 ZN VAV TERMINAL INLET AIR NODE,AIRLOOPHVAC:ZONESPLITTER,AIR LOOP HVAC ZONE SPLITTER 2,Outlet,1
 Non-Parent Node Connection,PERIMETER_MID_ZN_3 ZN VAV TERMINAL INLET AIR NODE,AIRLOOPHVAC:ZONESPLITTER,AIR LOOP HVAC ZONE SPLITTER 2,Outlet,1
 Non-Parent Node Connection,PERIMETER_MID_ZN_4 ZN VAV TERMINAL INLET AIR NODE,AIRLOOPHVAC:ZONESPLITTER,AIR LOOP HVAC ZONE SPLITTER 2,Outlet,1
 Non-Parent Node Connection,CORE_MID ZN VAV TERMINAL INLET AIR NODE,AIRLOOPHVAC:ZONESPLITTER,AIR LOOP HVAC ZONE SPLITTER 2,Outlet,1
 Non-Parent Node Connection,5 ZONE PVAV 2 DEMAND INLET NODE,AIRLOOPHVAC:ZONESPLITTER,AIR LOOP HVAC ZONE SPLITTER 3,Inlet,1
 Non-Parent Node Connection,PERIMETER_TOP_ZN_1 ZN VAV TERMINAL INLET AIR NODE,AIRLOOPHVAC:ZONESPLITTER,AIR LOOP HVAC ZONE SPLITTER 3,Outlet,1
 Non-Parent Node Connection,PERIMETER_TOP_ZN_2 ZN VAV TERMINAL INLET AIR NODE,AIRLOOPHVAC:ZONESPLITTER,AIR LOOP HVAC ZONE SPLITTER 3,Outlet,1
 Non-Parent Node Connection,PERIMETER_TOP_ZN_3 ZN VAV TERMINAL INLET AIR NODE,AIRLOOPHVAC:ZONESPLITTER,AIR LOOP HVAC ZONE SPLITTER 3,Outlet,1
 Non-Parent Node Connection,PERIMETER_TOP_ZN_4 ZN VAV TERMINAL INLET AIR NODE,AIRLOOPHVAC:ZONESPLITTER,AIR LOOP HVAC ZONE SPLITTER 3,Outlet,1
 Non-Parent Node Connection,CORE_TOP ZN VAV TERMINAL INLET AIR NODE,AIRLOOPHVAC:ZONESPLITTER,AIR LOOP HVAC ZONE SPLITTER 3,Outlet,1
 Non-Parent Node Connection,CORE_BOTTOM ZN VAV TERMINAL DAMPER OUTLET,AIRTERMINAL:SINGLEDUCT:VAV:REHEAT,CORE_BOTTOM ZN VAV TERMINAL,Outlet,1
 Non-Parent Node Connection,CORE_BOTTOM ZN VAV TERMINAL INLET AIR NODE,AIRTERMINAL:SINGLEDUCT:VAV:REHEAT,CORE_BOTTOM ZN VAV TERMINAL,Inlet,1
 Non-Parent Node Connection,CORE_MID ZN VAV TERMINAL DAMPER OUTLET,AIRTERMINAL:SINGLEDUCT:VAV:REHEAT,CORE_MID ZN VAV TERMINAL,Outlet,1
 Non-Parent Node Connection,CORE_MID ZN VAV TERMINAL INLET AIR NODE,AIRTERMINAL:SINGLEDUCT:VAV:REHEAT,CORE_MID ZN VAV TERMINAL,Inlet,1
 Non-Parent Node Connection,CORE_TOP ZN VAV TERMINAL DAMPER OUTLET,AIRTERMINAL:SINGLEDUCT:VAV:REHEAT,CORE_TOP ZN VAV TERMINAL,Outlet,1
 Non-Parent Node Connection,CORE_TOP ZN VAV TERMINAL INLET AIR NODE,AIRTERMINAL:SINGLEDUCT:VAV:REHEAT,CORE_TOP ZN VAV TERMINAL,Inlet,1
 Non-Parent Node Connection,PERIMETER_BOT_ZN_1 ZN VAV TERMINAL DAMPER OUTLET,AIRTERMINAL:SINGLEDUCT:VAV:REHEAT,PERIMETER_BOT_ZN_1 ZN VAV TERMINAL,Outlet,1
 Non-Parent Node Connection,PERIMETER_BOT_ZN_1 ZN VAV TERMINAL INLET AIR NODE,AIRTERMINAL:SINGLEDUCT:VAV:REHEAT,PERIMETER_BOT_ZN_1 ZN VAV TERMINAL,Inlet,1
 Non-Parent Node Connection,PERIMETER_BOT_ZN_2 ZN VAV TERMINAL DAMPER OUTLET,AIRTERMINAL:SINGLEDUCT:VAV:REHEAT,PERIMETER_BOT_ZN_2 ZN VAV TERMINAL,Outlet,1
 Non-Parent Node Connection,PERIMETER_BOT_ZN_2 ZN VAV TERMINAL INLET AIR NODE,AIRTERMINAL:SINGLEDUCT:VAV:REHEAT,PERIMETER_BOT_ZN_2 ZN VAV TERMINAL,Inlet,1
 Non-Parent Node Connection,PERIMETER_BOT_ZN_3 ZN VAV TERMINAL DAMPER OUTLET,AIRTERMINAL:SINGLEDUCT:VAV:REHEAT,PERIMETER_BOT_ZN_3 ZN VAV TERMINAL,Outlet,1
 Non-Parent Node Connection,PERIMETER_BOT_ZN_3 ZN VAV TERMINAL INLET AIR NODE,AIRTERMINAL:SINGLEDUCT:VAV:REHEAT,PERIMETER_BOT_ZN_3 ZN VAV TERMINAL,Inlet,1
 Non-Parent Node Connection,PERIMETER_BOT_ZN_4 ZN VAV TERMINAL DAMPER OUTLET,AIRTERMINAL:SINGLEDUCT:VAV:REHEAT,PERIMETER_BOT_ZN_4 ZN VAV TERMINAL,Outlet,1
 Non-Parent Node Connection,PERIMETER_BOT_ZN_4 ZN VAV TERMINAL INLET AIR NODE,AIRTERMINAL:SINGLEDUCT:VAV:REHEAT,PERIMETER_BOT_ZN_4 ZN VAV TERMINAL,Inlet,1
 Non-Parent Node Connection,PERIMETER_MID_ZN_1 ZN VAV TERMINAL DAMPER OUTLET,AIRTERMINAL:SINGLEDUCT:VAV:REHEAT,PERIMETER_MID_ZN_1 ZN VAV TERMINAL,Outlet,1
 Non-Parent Node Connection,PERIMETER_MID_ZN_1 ZN VAV TERMINAL INLET AIR NODE,AIRTERMINAL:SINGLEDUCT:VAV:REHEAT,PERIMETER_MID_ZN_1 ZN VAV TERMINAL,Inlet,1
 Non-Parent Node Connection,PERIMETER_MID_ZN_2 ZN VAV TERMINAL DAMPER OUTLET,AIRTERMINAL:SINGLEDUCT:VAV:REHEAT,PERIMETER_MID_ZN_2 ZN VAV TERMINAL,Outlet,1
 Non-Parent Node Connection,PERIMETER_MID_ZN_2 ZN VAV TERMINAL INLET AIR NODE,AIRTERMINAL:SINGLEDUCT:VAV:REHEAT,PERIMETER_MID_ZN_2 ZN VAV TERMINAL,Inlet,1
 Non-Parent Node Connection,PERIMETER_MID_ZN_3 ZN VAV TERMINAL DAMPER OUTLET,AIRTERMINAL:SINGLEDUCT:VAV:REHEAT,PERIMETER_MID_ZN_3 ZN VAV TERMINAL,Outlet,1
 Non-Parent Node Connection,PERIMETER_MID_ZN_3 ZN VAV TERMINAL INLET AIR NODE,AIRTERMINAL:SINGLEDUCT:VAV:REHEAT,PERIMETER_MID_ZN_3 ZN VAV TERMINAL,Inlet,1
 Non-Parent Node Connection,PERIMETER_MID_ZN_4 ZN VAV TERMINAL DAMPER OUTLET,AIRTERMINAL:SINGLEDUCT:VAV:REHEAT,PERIMETER_MID_ZN_4 ZN VAV TERMINAL,Outlet,1
 Non-Parent Node Connection,PERIMETER_MID_ZN_4 ZN VAV TERMINAL INLET AIR NODE,AIRTERMINAL:SINGLEDUCT:VAV:REHEAT,PERIMETER_MID_ZN_4 ZN VAV TERMINAL,Inlet,1
 Non-Parent Node Connection,PERIMETER_TOP_ZN_1 ZN VAV TERMINAL DAMPER OUTLET,AIRTERMINAL:SINGLEDUCT:VAV:REHEAT,PERIMETER_TOP_ZN_1 ZN VAV TERMINAL,Outlet,1
 Non-Parent Node Connection,PERIMETER_TOP_ZN_1 ZN VAV TERMINAL INLET AIR NODE,AIRTERMINAL:SINGLEDUCT:VAV:REHEAT,PERIMETER_TOP_ZN_1 ZN VAV TERMINAL,Inlet,1
 Non-Parent Node Connection,PERIMETER_TOP_ZN_2 ZN VAV TERMINAL DAMPER OUTLET,AIRTERMINAL:SINGLEDUCT:VAV:REHEAT,PERIMETER_TOP_ZN_2 ZN VAV TERMINAL,Outlet,1
 Non-Parent Node Connection,PERIMETER_TOP_ZN_2 ZN VAV TERMINAL INLET AIR NODE,AIRTERMINAL:SINGLEDUCT:VAV:REHEAT,PERIMETER_TOP_ZN_2 ZN VAV TERMINAL,Inlet,1
 Non-Parent Node Connection,PERIMETER_TOP_ZN_3 ZN VAV TERMINAL DAMPER OUTLET,AIRTERMINAL:SINGLEDUCT:VAV:REHEAT,PERIMETER_TOP_ZN_3 ZN VAV TERMINAL,Outlet,1
 Non-Parent Node Connection,PERIMETER_TOP_ZN_3 ZN VAV TERMINAL INLET AIR NODE,AIRTERMINAL:SINGLEDUCT:VAV:REHEAT,PERIMETER_TOP_ZN_3 ZN VAV TERMINAL,Inlet,1
 Non-Parent Node Connection,PERIMETER_TOP_ZN_4 ZN VAV TERMINAL DAMPER OUTLET,AIRTERMINAL:SINGLEDUCT:VAV:REHEAT,PERIMETER_TOP_ZN_4 ZN VAV TERMINAL,Outlet,1
 Non-Parent Node Connection,PERIMETER_TOP_ZN_4 ZN VAV TERMINAL INLET AIR NODE,AIRTERMINAL:SINGLEDUCT:VAV:REHEAT,PERIMETER_TOP_ZN_4 ZN VAV TERMINAL,Inlet,1
 Non-Parent Node Connection,CORE_BOTTOM ZN VAV TERMINAL DAMPER OUTLET,COIL:HEATING:ELECTRIC,CORE_BOTTOM ZN ELECTRIC REHEAT COIL,Inlet,1
 Non-Parent Node Connection,CORE_BOTTOM ZN VAV TERMINAL OUTLET AIR NODE,COIL:HEATING:ELECTRIC,CORE_BOTTOM ZN ELECTRIC REHEAT COIL,Outlet,1
 Non-Parent Node Connection,CORE_MID ZN VAV TERMINAL DAMPER OUTLET,COIL:HEATING:ELECTRIC,CORE_MID ZN ELECTRIC REHEAT COIL,Inlet,1
 Non-Parent Node Connection,CORE_MID ZN VAV TERMINAL OUTLET AIR NODE,COIL:HEATING:ELECTRIC,CORE_MID ZN ELECTRIC REHEAT COIL,Outlet,1
 Non-Parent Node Connection,CORE_TOP ZN VAV TERMINAL DAMPER OUTLET,COIL:HEATING:ELECTRIC,CORE_TOP ZN ELECTRIC REHEAT COIL,Inlet,1
 Non-Parent Node Connection,CORE_TOP ZN VAV TERMINAL OUTLET AIR NODE,COIL:HEATING:ELECTRIC,CORE_TOP ZN ELECTRIC REHEAT COIL,Outlet,1
 Non-Parent Node Connection,PERIMETER_BOT_ZN_1 ZN VAV TERMINAL DAMPER OUTLET,COIL:HEATING:ELECTRIC,PERIMETER_BOT_ZN_1 ZN ELECTRIC REHEAT COIL,Inlet,1
 Non-Parent Node Connection,PERIMETER_BOT_ZN_1 ZN VAV TERMINAL OUTLET AIR NODE,COIL:HEATING:ELECTRIC,PERIMETER_BOT_ZN_1 ZN ELECTRIC REHEAT COIL,Outlet,1
 Non-Parent Node Connection,PERIMETER_BOT_ZN_2 ZN VAV TERMINAL DAMPER OUTLET,COIL:HEATING:ELECTRIC,PERIMETER_BOT_ZN_2 ZN ELECTRIC REHEAT COIL,Inlet,1
 Non-Parent Node Connection,PERIMETER_BOT_ZN_2 ZN VAV TERMINAL OUTLET AIR NODE,COIL:HEATING:ELECTRIC,PERIMETER_BOT_ZN_2 ZN ELECTRIC REHEAT COIL,Outlet,1
 Non-Parent Node Connection,PERIMETER_BOT_ZN_3 ZN VAV TERMINAL DAMPER OUTLET,COIL:HEATING:ELECTRIC,PERIMETER_BOT_ZN_3 ZN ELECTRIC REHEAT COIL,Inlet,1
 Non-Parent Node Connection,PERIMETER_BOT_ZN_3 ZN VAV TERMINAL OUTLET AIR NODE,COIL:HEATING:ELECTRIC,PERIMETER_BOT_ZN_3 ZN ELECTRIC REHEAT COIL,Outlet,1
 Non-Parent Node Connection,PERIMETER_BOT_ZN_4 ZN VAV TERMINAL DAMPER OUTLET,COIL:HEATING:ELECTRIC,PERIMETER_BOT_ZN_4 ZN ELECTRIC REHEAT COIL,Inlet,1
 Non-Parent Node Connection,PERIMETER_BOT_ZN_4 ZN VAV TERMINAL OUTLET AIR NODE,COIL:HEATING:ELECTRIC,PERIMETER_BOT_ZN_4 ZN ELECTRIC REHEAT COIL,Outlet,1
 Non-Parent Node Connection,PERIMETER_MID_ZN_1 ZN VAV TERMINAL DAMPER OUTLET,COIL:HEATING:ELECTRIC,PERIMETER_MID_ZN_1 ZN ELECTRIC REHEAT COIL,Inlet,1
 Non-Parent Node Connection,PERIMETER_MID_ZN_1 ZN VAV TERMINAL OUTLET AIR NODE,COIL:HEATING:ELECTRIC,PERIMETER_MID_ZN_1 ZN ELECTRIC REHEAT COIL,Outlet,1
 Non-Parent Node Connection,PERIMETER_MID_ZN_2 ZN VAV TERMINAL DAMPER OUTLET,COIL:HEATING:ELECTRIC,PERIMETER_MID_ZN_2 ZN ELECTRIC REHEAT COIL,Inlet,1
 Non-Parent Node Connection,PERIMETER_MID_ZN_2 ZN VAV TERMINAL OUTLET AIR NODE,COIL:HEATING:ELECTRIC,PERIMETER_MID_ZN_2 ZN ELECTRIC REHEAT COIL,Outlet,1
 Non-Parent Node Connection,PERIMETER_MID_ZN_3 ZN VAV TERMINAL DAMPER OUTLET,COIL:HEATING:ELECTRIC,PERIMETER_MID_ZN_3 ZN ELECTRIC REHEAT COIL,Inlet,1
 Non-Parent Node Connection,PERIMETER_MID_ZN_3 ZN VAV TERMINAL OUTLET AIR NODE,COIL:HEATING:ELECTRIC,PERIMETER_MID_ZN_3 ZN ELECTRIC REHEAT COIL,Outlet,1
 Non-Parent Node Connection,PERIMETER_MID_ZN_4 ZN VAV TERMINAL DAMPER OUTLET,COIL:HEATING:ELECTRIC,PERIMETER_MID_ZN_4 ZN ELECTRIC REHEAT COIL,Inlet,1
 Non-Parent Node Connection,PERIMETER_MID_ZN_4 ZN VAV TERMINAL OUTLET AIR NODE,COIL:HEATING:ELECTRIC,PERIMETER_MID_ZN_4 ZN ELECTRIC REHEAT COIL,Outlet,1
 Non-Parent Node Connection,PERIMETER_TOP_ZN_1 ZN VAV TERMINAL DAMPER OUTLET,COIL:HEATING:ELECTRIC,PERIMETER_TOP_ZN_1 ZN ELECTRIC REHEAT COIL,Inlet,1
 Non-Parent Node Connection,PERIMETER_TOP_ZN_1 ZN VAV TERMINAL OUTLET AIR NODE,COIL:HEATING:ELECTRIC,PERIMETER_TOP_ZN_1 ZN ELECTRIC REHEAT COIL,Outlet,1
 Non-Parent Node Connection,PERIMETER_TOP_ZN_2 ZN VAV TERMINAL DAMPER OUTLET,COIL:HEATING:ELECTRIC,PERIMETER_TOP_ZN_2 ZN ELECTRIC REHEAT COIL,Inlet,1
 Non-Parent Node Connection,PERIMETER_TOP_ZN_2 ZN VAV TERMINAL OUTLET AIR NODE,COIL:HEATING:ELECTRIC,PERIMETER_TOP_ZN_2 ZN ELECTRIC REHEAT COIL,Outlet,1
 Non-Parent Node Connection,PERIMETER_TOP_ZN_3 ZN VAV TERMINAL DAMPER OUTLET,COIL:HEATING:ELECTRIC,PERIMETER_TOP_ZN_3 ZN ELECTRIC REHEAT COIL,Inlet,1
 Non-Parent Node Connection,PERIMETER_TOP_ZN_3 ZN VAV TERMINAL OUTLET AIR NODE,COIL:HEATING:ELECTRIC,PERIMETER_TOP_ZN_3 ZN ELECTRIC REHEAT COIL,Outlet,1
 Non-Parent Node Connection,PERIMETER_TOP_ZN_4 ZN VAV TERMINAL DAMPER OUTLET,COIL:HEATING:ELECTRIC,PERIMETER_TOP_ZN_4 ZN ELECTRIC REHEAT COIL,Inlet,1
 Non-Parent Node Connection,PERIMETER_TOP_ZN_4 ZN VAV TERMINAL OUTLET AIR NODE,COIL:HEATING:ELECTRIC,PERIMETER_TOP_ZN_4 ZN ELECTRIC REHEAT COIL,Outlet,1
 Non-Parent Node Connection,5 ZONE PVAV 2SPD DX CLG COIL 376KBTU/HR 9.8EER OUTLET AIR NODE,COIL:HEATING:FUEL,5 ZONE PVAV MAIN GAS HTG COIL,Inlet,1
 Non-Parent Node Connection,5 ZONE PVAV MAIN GAS HTG COIL OUTLET AIR NODE,COIL:HEATING:FUEL,5 ZONE PVAV MAIN GAS HTG COIL,Outlet,1
 Non-Parent Node Connection,5 ZONE PVAV MAIN GAS HTG COIL OUTLET AIR NODE,COIL:HEATING:FUEL,5 ZONE PVAV MAIN GAS HTG COIL,Sensor,1
 Non-Parent Node Connection,5 ZONE PVAV 1 2SPD DX CLG COIL 310KBTU/HR 9.8EER OUTLET AIR NODE,COIL:HEATING:FUEL,5 ZONE PVAV 1 MAIN GAS HTG COIL,Inlet,1
 Non-Parent Node Connection,5 ZONE PVAV 1 MAIN GAS HTG COIL OUTLET AIR NODE,COIL:HEATING:FUEL,5 ZONE PVAV 1 MAIN GAS HTG COIL,Outlet,1
 Non-Parent Node Connection,5 ZONE PVAV 1 MAIN GAS HTG COIL OUTLET AIR NODE,COIL:HEATING:FUEL,5 ZONE PVAV 1 MAIN GAS HTG COIL,Sensor,1
 Non-Parent Node Connection,5 ZONE PVAV 2 2SPD DX CLG COIL 327KBTU/HR 9.8EER OUTLET AIR NODE,COIL:HEATING:FUEL,5 ZONE PVAV 2 MAIN GAS HTG COIL,Inlet,1
 Non-Parent Node Connection,5 ZONE PVAV 2 MAIN GAS HTG COIL OUTLET AIR NODE,COIL:HEATING:FUEL,5 ZONE PVAV 2 MAIN GAS HTG COIL,Outlet,1
 Non-Parent Node Connection,5 ZONE PVAV 2 MAIN GAS HTG COIL OUTLET AIR NODE,COIL:HEATING:FUEL,5 ZONE PVAV 2 MAIN GAS HTG COIL,Sensor,1
 Non-Parent Node Connection,FIRSTFLOOR_PLENUM ZN ZONE AIR NODE,AIRLOOPHVAC:RETURNPLENUM,AIR LOOP HVAC RETURN PLENUM 1,ZoneNode,1
 Non-Parent Node Connection,NODE 32,AIRLOOPHVAC:RETURNPLENUM,AIR LOOP HVAC RETURN PLENUM 1,Outlet,1
 Non-Parent Node Connection,PERIMETER_BOT_ZN_1 ZN RETURN AIR NODE,AIRLOOPHVAC:RETURNPLENUM,AIR LOOP HVAC RETURN PLENUM 1,Inlet,1
 Non-Parent Node Connection,PERIMETER_BOT_ZN_2 ZN RETURN AIR NODE,AIRLOOPHVAC:RETURNPLENUM,AIR LOOP HVAC RETURN PLENUM 1,Inlet,1
 Non-Parent Node Connection,PERIMETER_BOT_ZN_3 ZN RETURN AIR NODE,AIRLOOPHVAC:RETURNPLENUM,AIR LOOP HVAC RETURN PLENUM 1,Inlet,1
 Non-Parent Node Connection,PERIMETER_BOT_ZN_4 ZN RETURN AIR NODE,AIRLOOPHVAC:RETURNPLENUM,AIR LOOP HVAC RETURN PLENUM 1,Inlet,1
 Non-Parent Node Connection,CORE_BOTTOM ZN RETURN AIR NODE,AIRLOOPHVAC:RETURNPLENUM,AIR LOOP HVAC RETURN PLENUM 1,Inlet,1
 Non-Parent Node Connection,MIDFLOOR_PLENUM ZN ZONE AIR NODE,AIRLOOPHVAC:RETURNPLENUM,AIR LOOP HVAC RETURN PLENUM 2,ZoneNode,1
 Non-Parent Node Connection,NODE 57,AIRLOOPHVAC:RETURNPLENUM,AIR LOOP HVAC RETURN PLENUM 2,Outlet,1
 Non-Parent Node Connection,PERIMETER_MID_ZN_1 ZN RETURN AIR NODE,AIRLOOPHVAC:RETURNPLENUM,AIR LOOP HVAC RETURN PLENUM 2,Inlet,1
 Non-Parent Node Connection,PERIMETER_MID_ZN_2 ZN RETURN AIR NODE,AIRLOOPHVAC:RETURNPLENUM,AIR LOOP HVAC RETURN PLENUM 2,Inlet,1
 Non-Parent Node Connection,PERIMETER_MID_ZN_3 ZN RETURN AIR NODE,AIRLOOPHVAC:RETURNPLENUM,AIR LOOP HVAC RETURN PLENUM 2,Inlet,1
 Non-Parent Node Connection,PERIMETER_MID_ZN_4 ZN RETURN AIR NODE,AIRLOOPHVAC:RETURNPLENUM,AIR LOOP HVAC RETURN PLENUM 2,Inlet,1
 Non-Parent Node Connection,CORE_MID ZN RETURN AIR NODE,AIRLOOPHVAC:RETURNPLENUM,AIR LOOP HVAC RETURN PLENUM 2,Inlet,1
 Non-Parent Node Connection,TOPFLOOR_PLENUM ZN ZONE AIR NODE,AIRLOOPHVAC:RETURNPLENUM,AIR LOOP HVAC RETURN PLENUM 3,ZoneNode,1
 Non-Parent Node Connection,NODE 82,AIRLOOPHVAC:RETURNPLENUM,AIR LOOP HVAC RETURN PLENUM 3,Outlet,1
 Non-Parent Node Connection,PERIMETER_TOP_ZN_1 ZN RETURN AIR NODE,AIRLOOPHVAC:RETURNPLENUM,AIR LOOP HVAC RETURN PLENUM 3,Inlet,1
 Non-Parent Node Connection,PERIMETER_TOP_ZN_2 ZN RETURN AIR NODE,AIRLOOPHVAC:RETURNPLENUM,AIR LOOP HVAC RETURN PLENUM 3,Inlet,1
 Non-Parent Node Connection,PERIMETER_TOP_ZN_3 ZN RETURN AIR NODE,AIRLOOPHVAC:RETURNPLENUM,AIR LOOP HVAC RETURN PLENUM 3,Inlet,1
 Non-Parent Node Connection,PERIMETER_TOP_ZN_4 ZN RETURN AIR NODE,AIRLOOPHVAC:RETURNPLENUM,AIR LOOP HVAC RETURN PLENUM 3,Inlet,1
 Non-Parent Node Connection,CORE_TOP ZN RETURN AIR NODE,AIRLOOPHVAC:RETURNPLENUM,AIR LOOP HVAC RETURN PLENUM 3,Inlet,1
 Non-Parent Node Connection,5 ZONE PVAV DEMAND OUTLET NODE,AIRLOOPHVAC:ZONEMIXER,AIR LOOP HVAC ZONE MIXER 1,Outlet,1
 Non-Parent Node Connection,NODE 32,AIRLOOPHVAC:ZONEMIXER,AIR LOOP HVAC ZONE MIXER 1,Inlet,1
 Non-Parent Node Connection,5 ZONE PVAV 1 DEMAND OUTLET NODE,AIRLOOPHVAC:ZONEMIXER,AIR LOOP HVAC ZONE MIXER 2,Outlet,1
 Non-Parent Node Connection,NODE 57,AIRLOOPHVAC:ZONEMIXER,AIR LOOP HVAC ZONE MIXER 2,Inlet,1
 Non-Parent Node Connection,5 ZONE PVAV 2 DEMAND OUTLET NODE,AIRLOOPHVAC:ZONEMIXER,AIR LOOP HVAC ZONE MIXER 3,Outlet,1
 Non-Parent Node Connection,NODE 82,AIRLOOPHVAC:ZONEMIXER,AIR LOOP HVAC ZONE MIXER 3,Inlet,1
 Non-Parent Node Connection,5 ZONE PVAV MIXED AIR NODE,OUTDOORAIR:MIXER,5 ZONE PVAV OA SYSTEM OUTDOOR AIR MIXER,Outlet,1
 Non-Parent Node Connection,5 ZONE PVAV OUTDOOR AIR NODE,OUTDOORAIR:MIXER,5 ZONE PVAV OA SYSTEM OUTDOOR AIR MIXER,Inlet,1
 Non-Parent Node Connection,5 ZONE PVAV RELIEF AIR NODE,OUTDOORAIR:MIXER,5 ZONE PVAV OA SYSTEM OUTDOOR AIR MIXER,ReliefAir,1
 Non-Parent Node Connection,5 ZONE PVAV SUPPLY INLET NODE,OUTDOORAIR:MIXER,5 ZONE PVAV OA SYSTEM OUTDOOR AIR MIXER,Inlet,1
 Non-Parent Node Connection,5 ZONE PVAV 1 MIXED AIR NODE,OUTDOORAIR:MIXER,5 ZONE PVAV 1 OA SYSTEM OUTDOOR AIR MIXER,Outlet,1
 Non-Parent Node Connection,5 ZONE PVAV 1 OUTDOOR AIR NODE,OUTDOORAIR:MIXER,5 ZONE PVAV 1 OA SYSTEM OUTDOOR AIR MIXER,Inlet,1
 Non-Parent Node Connection,5 ZONE PVAV 1 RELIEF AIR NODE,OUTDOORAIR:MIXER,5 ZONE PVAV 1 OA SYSTEM OUTDOOR AIR MIXER,ReliefAir,1
 Non-Parent Node Connection,5 ZONE PVAV 1 SUPPLY INLET NODE,OUTDOORAIR:MIXER,5 ZONE PVAV 1 OA SYSTEM OUTDOOR AIR MIXER,Inlet,1
 Non-Parent Node Connection,5 ZONE PVAV 2 MIXED AIR NODE,OUTDOORAIR:MIXER,5 ZONE PVAV 2 OA SYSTEM OUTDOOR AIR MIXER,Outlet,1
 Non-Parent Node Connection,5 ZONE PVAV 2 OUTDOOR AIR NODE,OUTDOORAIR:MIXER,5 ZONE PVAV 2 OA SYSTEM OUTDOOR AIR MIXER,Inlet,1
 Non-Parent Node Connection,5 ZONE PVAV 2 RELIEF AIR NODE,OUTDOORAIR:MIXER,5 ZONE PVAV 2 OA SYSTEM OUTDOOR AIR MIXER,ReliefAir,1
 Non-Parent Node Connection,5 ZONE PVAV 2 SUPPLY INLET NODE,OUTDOORAIR:MIXER,5 ZONE PVAV 2 OA SYSTEM OUTDOOR AIR MIXER,Inlet,1
 Non-Parent Node Connection,5 ZONE PVAV MAIN GAS HTG COIL OUTLET AIR NODE,FAN:VARIABLEVOLUME,5 ZONE PVAV FAN,Inlet,1
 Non-Parent Node Connection,5 ZONE PVAV SUPPLY OUTLET NODE,FAN:VARIABLEVOLUME,5 ZONE PVAV FAN,Outlet,1
 Non-Parent Node Connection,5 ZONE PVAV 1 MAIN GAS HTG COIL OUTLET AIR NODE,FAN:VARIABLEVOLUME,5 ZONE PVAV 1 FAN,Inlet,1
 Non-Parent Node Connection,5 ZONE PVAV 1 SUPPLY OUTLET NODE,FAN:VARIABLEVOLUME,5 ZONE PVAV 1 FAN,Outlet,1
 Non-Parent Node Connection,5 ZONE PVAV 2 MAIN GAS HTG COIL OUTLET AIR NODE,FAN:VARIABLEVOLUME,5 ZONE PVAV 2 FAN,Inlet,1
 Non-Parent Node Connection,5 ZONE PVAV 2 SUPPLY OUTLET NODE,FAN:VARIABLEVOLUME,5 ZONE PVAV 2 FAN,Outlet,1
 Non-Parent Node Connection,5 ZONE PVAV MIXED AIR NODE,CONTROLLER:OUTDOORAIR,CONTROLLER OUTDOOR AIR 1,Sensor,1
 Non-Parent Node Connection,5 ZONE PVAV OUTDOOR AIR NODE,CONTROLLER:OUTDOORAIR,CONTROLLER OUTDOOR AIR 1,Actuator,1
 Non-Parent Node Connection,5 ZONE PVAV RELIEF AIR NODE,CONTROLLER:OUTDOORAIR,CONTROLLER OUTDOOR AIR 1,Actuator,1
 Non-Parent Node Connection,5 ZONE PVAV SUPPLY INLET NODE,CONTROLLER:OUTDOORAIR,CONTROLLER OUTDOOR AIR 1,Sensor,1
 Non-Parent Node Connection,5 ZONE PVAV 1 MIXED AIR NODE,CONTROLLER:OUTDOORAIR,CONTROLLER OUTDOOR AIR 2,Sensor,1
 Non-Parent Node Connection,5 ZONE PVAV 1 OUTDOOR AIR NODE,CONTROLLER:OUTDOORAIR,CONTROLLER OUTDOOR AIR 2,Actuator,1
 Non-Parent Node Connection,5 ZONE PVAV 1 RELIEF AIR NODE,CONTROLLER:OUTDOORAIR,CONTROLLER OUTDOOR AIR 2,Actuator,1
 Non-Parent Node Connection,5 ZONE PVAV 1 SUPPLY INLET NODE,CONTROLLER:OUTDOORAIR,CONTROLLER OUTDOOR AIR 2,Sensor,1
 Non-Parent Node Connection,5 ZONE PVAV 2 MIXED AIR NODE,CONTROLLER:OUTDOORAIR,CONTROLLER OUTDOOR AIR 3,Sensor,1
 Non-Parent Node Connection,5 ZONE PVAV 2 OUTDOOR AIR NODE,CONTROLLER:OUTDOORAIR,CONTROLLER OUTDOOR AIR 3,Actuator,1
 Non-Parent Node Connection,5 ZONE PVAV 2 RELIEF AIR NODE,CONTROLLER:OUTDOORAIR,CONTROLLER OUTDOOR AIR 3,Actuator,1
 Non-Parent Node Connection,5 ZONE PVAV 2 SUPPLY INLET NODE,CONTROLLER:OUTDOORAIR,CONTROLLER OUTDOOR AIR 3,Sensor,1
 Non-Parent Node Connection,5 ZONE PVAV MIXED AIR NODE,COIL:COOLING:DX:TWOSPEED,5 ZONE PVAV 2SPD DX CLG COIL 376KBTU/HR 9.8EER,Inlet,1
 Non-Parent Node Connection,5 ZONE PVAV 2SPD DX CLG COIL 376KBTU/HR 9.8EER OUTLET AIR NODE,COIL:COOLING:DX:TWOSPEED,5 ZONE PVAV 2SPD DX CLG COIL 376KBTU/HR 9.8EER,Outlet,1
 Non-Parent Node Connection,5 ZONE PVAV 1 MIXED AIR NODE,COIL:COOLING:DX:TWOSPEED,5 ZONE PVAV 1 2SPD DX CLG COIL 310KBTU/HR 9.8EER,Inlet,1
 Non-Parent Node Connection,5 ZONE PVAV 1 2SPD DX CLG COIL 310KBTU/HR 9.8EER OUTLET AIR NODE,COIL:COOLING:DX:TWOSPEED,5 ZONE PVAV 1 2SPD DX CLG COIL 310KBTU/HR 9.8EER,Outlet,1
 Non-Parent Node Connection,5 ZONE PVAV 2 MIXED AIR NODE,COIL:COOLING:DX:TWOSPEED,5 ZONE PVAV 2 2SPD DX CLG COIL 327KBTU/HR 9.8EER,Inlet,1
 Non-Parent Node Connection,5 ZONE PVAV 2 2SPD DX CLG COIL 327KBTU/HR 9.8EER OUTLET AIR NODE,COIL:COOLING:DX:TWOSPEED,5 ZONE PVAV 2 2SPD DX CLG COIL 327KBTU/HR 9.8EER,Outlet,1
 Non-Parent Node Connection,MAIN SERVICE WATER LOOP SUPPLY INLET NODE,PUMP:CONSTANTSPEED,MAIN SERVICE WATER LOOP CIRCULATOR PUMP,Inlet,1
 Non-Parent Node Connection,MAIN SERVICE WATER LOOP CIRCULATOR PUMP OUTLET WATER NODE,PUMP:CONSTANTSPEED,MAIN SERVICE WATER LOOP CIRCULATOR PUMP,Outlet,1
